Cereblon_3MXF_20.pdb
  MOLSOFT 04032206223D

 30 32  0  0  1  0  0  0  0  0999 V2000
   81.7186   54.1289   19.5998 C   0  0  0  0  0  0  0  0  0  0  0  0
   81.0381   55.0383   20.3914 C   0  0  0  0  0  0  0  0  0  0  0  0
   81.5506   56.2886   20.6014 C   0  0  0  0  0  0  0  0  0  0  0  0
   80.6592   57.0100   21.5117 C   0  0  0  0  0  0  0  0  0  0  0  0
   80.8549   58.1562   21.8895 O   0  0  0  0  0  0  0  0  0  0  0  0
   79.6352   56.1371   21.8255 N   0  0  0  0  0  0  0  0  0  0  0  0
   78.5066   56.3985   22.7216 C   0  0  2  0  0  0  0  0  0  0  0  0
   77.3806   57.1454   22.0288 C   0  0  0  0  0  0  0  0  0  0  0  0
   77.2194   57.1611   20.8174 O   0  0  0  0  0  0  0  0  0  0  0  0
   76.4714   57.7251   22.8824 N   0  0  0  0  0  0  0  0  0  0  0  0
   76.4789   57.7639   24.2556 C   0  0  0  0  0  0  0  0  0  0  0  0
   75.5375   58.2105   24.8910 O   0  0  0  0  0  0  0  0  0  0  0  0
   77.6938   57.1756   24.9311 C   0  0  0  0  0  0  0  0  0  0  0  0
   78.8834   57.1582   23.9917 C   0  0  0  0  0  0  0  0  0  0  0  0
   79.7463   54.8810   21.1058 C   0  0  0  0  0  0  0  0  0  0  0  0
   82.7342   56.7243   20.0383 C   0  0  0  0  0  0  0  0  0  0  0  0
   83.4093   55.8249   19.2280 C   0  0  0  0  0  0  0  0  0  0  0  0
   82.9109   54.5399   19.0176 C   0  0  0  0  0  0  0  0  0  0  0  0
   81.3327   53.1276   19.4309 H   0  0  0  0  0  0  0  0  0  0  0  0
   78.1032   55.4199   22.9953 H   0  0  0  0  0  0  0  0  0  0  0  0
   75.6874   58.1818   22.4368 H   0  0  0  0  0  0  0  0  0  0  0  0
   77.9284   57.7716   25.8188 H   0  0  0  0  0  0  0  0  0  0  0  0
   77.4492   56.1625   25.2575 H   0  0  0  0  0  0  0  0  0  0  0  0
   79.1719   58.1894   23.7607 H   0  0  0  0  0  0  0  0  0  0  0  0
   79.7402   56.6951   24.4883 H   0  0  0  0  0  0  0  0  0  0  0  0
   78.9085   54.7876   20.4090 H   0  0  0  0  0  0  0  0  0  0  0  0
   79.7593   54.0452   21.8113 H   0  0  0  0  0  0  0  0  0  0  0  0
   83.1216   57.7211   20.2250 H   0  0  0  0  0  0  0  0  0  0  0  0
   84.3403   56.1308   18.7616 H   0  0  0  0  0  0  0  0  0  0  0  0
   83.4605   53.8482   18.3867 H   0  0  0  0  0  0  0  0  0  0  0  0
  1 19  1  0  0  0  0
  1 18  2  0  0  0  0
  1  2  1  0  0  0  0
  2  3  2  0  0  0  0
  2 15  1  0  0  0  0
  3 16  1  0  0  0  0
  3  4  1  0  0  0  0
  4  6  1  0  0  0  0
  4  5  2  0  0  0  0
  6 15  1  0  0  0  0
  7  6  1  0  0  0  0
  7 20  1  0  0  0  0
  7  8  1  0  0  0  0
  7 14  1  0  0  0  0
  8  9  2  0  0  0  0
  8 10  1  0  0  0  0
 10 21  1  0  0  0  0
 10 11  1  0  0  0  0
 11 12  2  0  0  0  0
 11 13  1  0  0  0  0
 13 22  1  0  0  0  0
 13 23  1  0  0  0  0
 13 14  1  0  0  0  0
 14 24  1  0  0  0  0
 14 25  1  0  0  0  0
 15 26  1  0  0  0  0
 15 27  1  0  0  0  0
 16 17  2  0  0  0  0
 16 28  1  0  0  0  0
 17 18  1  0  0  0  0
 17 29  1  0  0  0  0
 18 30  1  0  0  0  0
M  ZZC   1 c1
M  ZZC   2 c2
M  ZZC   3 c3
M  ZZC   4 c4
M  ZZC   5 o1
M  ZZC   6 n1
M  ZZC   7 c5
M  ZZC   8 c6
M  ZZC   9 o2
M  ZZC  10 n2
M  ZZC  11 c7
M  ZZC  12 o3
M  ZZC  13 c8
M  ZZC  14 c9
M  ZZC  15 c10
M  ZZC  16 c11
M  ZZC  17 c12
M  ZZC  18 c13
M  ZZC  19 h11
M  ZZC  20 h51
M  ZZC  21 h21
M  ZZC  22 h81
M  ZZC  23 h82
M  ZZC  24 h91
M  ZZC  25 h92
M  ZZC  26 h101
M  ZZC  27 h102
M  ZZC  28 h111
M  ZZC  29 h121
M  ZZC  30 h131
M  ZZM   1 37
M  ZZI   1 125
M  ZZM   2 37
M  ZZI   2 124
M  ZZM   3 37
M  ZZI   3 124
M  ZZM   4 3
M  ZZI   4 121
M  ZZM   5 7
M  ZZI   5 81
M  ZZM   6 10
M  ZZI   6 192
M  ZZM   7 1
M  ZZI   7 113
M  ZZM   8 3
M  ZZI   8 121
M  ZZM   9 7
M  ZZI   9 81
M  ZZM  10 10
M  ZZI  10 191
M  ZZM  11 3
M  ZZI  11 121
M  ZZM  12 7
M  ZZI  12 81
M  ZZM  13 1
M  ZZI  13 112
M  ZZM  14 1
M  ZZI  14 112
M  ZZM  15 1
M  ZZI  15 112
M  ZZM  16 37
M  ZZI  16 125
M  ZZM  17 37
M  ZZI  17 125
M  ZZM  18 37
M  ZZI  18 125
M  ZZM  19 5
M  ZZI  19 1
M  ZZM  20 5
M  ZZI  20 1
M  ZZM  21 28
M  ZZI  21 11
M  ZZM  22 5
M  ZZI  22 1
M  ZZM  23 5
M  ZZI  23 1
M  ZZM  24 5
M  ZZI  24 1
M  ZZM  25 5
M  ZZI  25 1
M  ZZM  26 5
M  ZZI  26 1
M  ZZM  27 5
M  ZZI  27 1
M  ZZM  28 5
M  ZZI  28 1
M  ZZM  29 5
M  ZZI  29 1
M  ZZM  30 5
M  ZZI  30 1
M  END
> <IX>
1

> <NAME>
Cereblon_3MXF_20.pdb

> <Score>
-14.136627

> <Natom>
30

> <Nflex>
1

> <Hbond>
-0.48189

> <Hphob>
-3.716453

> <VwInt>
-19.981996

> <Dsolv>
9.72955

> <SolEl>
0.523577

> <Eintl>
2.186417

> <RecConf>
ND

> <projPath>
Cereblon_maps/

> <NAME_>
Cereblon_3MXF_20.pdb

$$$$
