Cereblon_4QNQ_55.pdb
  MOLSOFT 04032206243D

 31 33  0  0  1  0  0  0  0  0999 V2000
   78.0682   40.6278   42.6588 N   0  0  0  0  0  0  0  0  0  0  0  0
   78.1237   41.7193   41.7769 C   0  0  0  0  0  0  0  0  0  0  0  0
   77.2992   41.8165   40.6646 C   0  0  0  0  0  0  0  0  0  0  0  0
   76.2311   40.9292   40.2097 C   0  0  0  0  0  0  0  0  0  0  0  0
   75.9796   39.8421   40.7103 O   0  0  0  0  0  0  0  0  0  0  0  0
   75.6133   41.5620   39.1468 N   0  0  0  0  0  0  0  0  0  0  0  0
   76.3418   42.6716   38.7682 C   0  0  0  0  0  0  0  0  0  0  0  0
   76.2414   43.3735   37.7732 O   0  0  0  0  0  0  0  0  0  0  0  0
   77.3769   42.8533   39.7856 C   0  0  0  0  0  0  0  0  0  0  0  0
   78.3195   43.8564   39.9173 C   0  0  0  0  0  0  0  0  0  0  0  0
   79.1849   43.7686   41.0001 C   0  0  0  0  0  0  0  0  0  0  0  0
   79.0844   42.7191   41.9151 C   0  0  0  0  0  0  0  0  0  0  0  0
   74.3664   41.0508   38.5488 C   0  0  1  0  0  0  0  0  0  0  0  0
   73.2279   41.3254   39.5222 C   0  0  0  0  0  0  0  0  0  0  0  0
   73.4042   41.6109   40.6942 O   0  0  0  0  0  0  0  0  0  0  0  0
   71.9583   41.1787   39.0233 N   0  0  0  0  0  0  0  0  0  0  0  0
   71.5811   40.9393   37.7275 C   0  0  0  0  0  0  0  0  0  0  0  0
   70.4190   40.6947   37.4413 O   0  0  0  0  0  0  0  0  0  0  0  0
   72.6978   40.9399   36.7041 C   0  0  0  0  0  0  0  0  0  0  0  0
   73.9357   41.6655   37.2165 C   0  0  0  0  0  0  0  0  0  0  0  0
   78.6456   40.6145   43.4984 H   0  0  0  0  0  0  0  0  0  0  0  0
   77.2695   39.9941   42.6018 H   0  0  0  0  0  0  0  0  0  0  0  0
   78.3800   44.6760   39.2098 H   0  0  0  0  0  0  0  0  0  0  0  0
   79.9431   44.5322   41.1429 H   0  0  0  0  0  0  0  0  0  0  0  0
   79.7728   42.6863   42.7538 H   0  0  0  0  0  0  0  0  0  0  0  0
   74.4643   39.9618   38.4674 H   0  0  0  0  0  0  0  0  0  0  0  0
   71.2070   41.2760   39.6938 H   0  0  0  0  0  0  0  0  0  0  0  0
   72.9343   39.8994   36.4574 H   0  0  0  0  0  0  0  0  0  0  0  0
   72.3351   41.4297   35.7946 H   0  0  0  0  0  0  0  0  0  0  0  0
   74.7301   41.6090   36.4711 H   0  0  0  0  0  0  0  0  0  0  0  0
   73.7044   42.7299   37.3418 H   0  0  0  0  0  0  0  0  0  0  0  0
  1  2  1  0  0  0  0
  1 21  1  0  0  0  0
  1 22  1  0  0  0  0
  2  3  1  0  0  0  0
  2 12  2  0  0  0  0
  3  9  2  0  0  0  0
  3  4  1  0  0  0  0
  4  5  2  0  0  0  0
  4  6  1  0  0  0  0
  6  7  1  0  0  0  0
 13  6  1  0  0  0  0
  7  8  2  0  0  0  0
  7  9  1  0  0  0  0
  9 10  1  0  0  0  0
 10 23  1  0  0  0  0
 10 11  2  0  0  0  0
 11 12  1  0  0  0  0
 11 24  1  0  0  0  0
 12 25  1  0  0  0  0
 13 26  1  0  0  0  0
 13 14  1  0  0  0  0
 13 20  1  0  0  0  0
 14 15  2  0  0  0  0
 14 16  1  0  0  0  0
 16 27  1  0  0  0  0
 16 17  1  0  0  0  0
 17 18  2  0  0  0  0
 17 19  1  0  0  0  0
 19 28  1  0  0  0  0
 19 29  1  0  0  0  0
 19 20  1  0  0  0  0
 20 30  1  0  0  0  0
 20 31  1  0  0  0  0
M  ZZC   1 n1
M  ZZC   2 c1
M  ZZC   3 c2
M  ZZC   4 c3
M  ZZC   5 o1
M  ZZC   6 n2
M  ZZC   7 c4
M  ZZC   8 o2
M  ZZC   9 c5
M  ZZC  10 c6
M  ZZC  11 c7
M  ZZC  12 c8
M  ZZC  13 c9
M  ZZC  14 c10
M  ZZC  15 o3
M  ZZC  16 n3
M  ZZC  17 c11
M  ZZC  18 o4
M  ZZC  19 c12
M  ZZC  20 c13
M  ZZC  21 h11
M  ZZC  22 h12
M  ZZC  23 h61
M  ZZC  24 h71
M  ZZC  25 h81
M  ZZC  26 h91
M  ZZC  27 h31
M  ZZC  28 h121
M  ZZC  29 h122
M  ZZC  30 h131
M  ZZC  31 h132
M  ZZM   1 40
M  ZZI   1 224
M  ZZM   2 37
M  ZZI   2 124
M  ZZM   3 37
M  ZZI   3 124
M  ZZM   4 3
M  ZZI   4 121
M  ZZM   5 7
M  ZZI   5 81
M  ZZM   6 10
M  ZZI   6 192
M  ZZM   7 3
M  ZZI   7 121
M  ZZM   8 7
M  ZZI   8 81
M  ZZM   9 37
M  ZZI   9 124
M  ZZM  10 37
M  ZZI  10 125
M  ZZM  11 37
M  ZZI  11 125
M  ZZM  12 37
M  ZZI  12 125
M  ZZM  13 1
M  ZZI  13 113
M  ZZM  14 3
M  ZZI  14 121
M  ZZM  15 7
M  ZZI  15 81
M  ZZM  16 10
M  ZZI  16 191
M  ZZM  17 3
M  ZZI  17 121
M  ZZM  18 7
M  ZZI  18 81
M  ZZM  19 1
M  ZZI  19 112
M  ZZM  20 1
M  ZZI  20 112
M  ZZM  21 28
M  ZZI  21 11
M  ZZM  22 28
M  ZZI  22 11
M  ZZM  23 5
M  ZZI  23 1
M  ZZM  24 5
M  ZZI  24 1
M  ZZM  25 5
M  ZZI  25 1
M  ZZM  26 5
M  ZZI  26 1
M  ZZM  27 28
M  ZZI  27 11
M  ZZM  28 5
M  ZZI  28 1
M  ZZM  29 5
M  ZZI  29 1
M  ZZM  30 5
M  ZZI  30 1
M  ZZM  31 5
M  ZZI  31 1
M  END
> <IX>
1

> <NAME>
Cereblon_4QNQ_55.pdb

> <Score>
-14.239529

> <Natom>
31

> <Nflex>
1

> <Hbond>
-2.754953

> <Hphob>
-3.700609

> <VwInt>
-27.017029

> <Dsolv>
17.168619

> <SolEl>
7.908299

> <Eintl>
5.884997

> <RecConf>
ND

> <projPath>
Cereblon_maps/

> <NAME_>
Cereblon_4QNQ_55.pdb

$$$$
