Cereblon_5L2T_1.pdb
  MOLSOFT 04032206253D

 31 33  0  0  1  0  0  0  0  0999 V2000
   78.7243   41.7081   43.8900 N   0  0  0  0  0  0  0  0  0  0  0  0
   78.7955   42.4838   42.7221 C   0  0  0  0  0  0  0  0  0  0  0  0
   78.0688   42.1682   41.5862 C   0  0  0  0  0  0  0  0  0  0  0  0
   77.1562   41.0540   41.3662 C   0  0  0  0  0  0  0  0  0  0  0  0
   76.9500   40.1829   42.1980 O   0  0  0  0  0  0  0  0  0  0  0  0
   76.6484   41.2095   40.0919 N   0  0  0  0  0  0  0  0  0  0  0  0
   77.1908   42.3196   39.4774 C   0  0  0  0  0  0  0  0  0  0  0  0
   76.9978   42.7345   38.3419 O   0  0  0  0  0  0  0  0  0  0  0  0
   78.1075   42.9171   40.4491 C   0  0  0  0  0  0  0  0  0  0  0  0
   78.9281   44.0204   40.3355 C   0  0  0  0  0  0  0  0  0  0  0  0
   79.7199   44.3271   41.4376 C   0  0  0  0  0  0  0  0  0  0  0  0
   79.6549   43.5730   42.6112 C   0  0  0  0  0  0  0  0  0  0  0  0
   75.6386   40.3713   39.4419 C   0  0  2  0  0  0  0  0  0  0  0  0
   74.2663   40.9601   39.7214 C   0  0  0  0  0  0  0  0  0  0  0  0
   74.1001   42.1410   39.9792 O   0  0  0  0  0  0  0  0  0  0  0  0
   73.2014   40.1033   39.5871 N   0  0  0  0  0  0  0  0  0  0  0  0
   73.2220   38.7647   39.2783 C   0  0  0  0  0  0  0  0  0  0  0  0
   72.1942   38.1203   39.1473 O   0  0  0  0  0  0  0  0  0  0  0  0
   74.5854   38.1521   39.0595 C   0  0  0  0  0  0  0  0  0  0  0  0
   75.6570   38.8978   39.8364 C   0  0  0  0  0  0  0  0  0  0  0  0
   78.9695   42.1278   44.7859 H   0  0  0  0  0  0  0  0  0  0  0  0
   78.0872   40.9097   43.9002 H   0  0  0  0  0  0  0  0  0  0  0  0
   78.9555   44.6117   39.4279 H   0  0  0  0  0  0  0  0  0  0  0  0
   80.3932   45.1758   41.3898 H   0  0  0  0  0  0  0  0  0  0  0  0
   80.2852   43.8461   43.4520 H   0  0  0  0  0  0  0  0  0  0  0  0
   75.7931   40.4661   38.3658 H   0  0  0  0  0  0  0  0  0  0  0  0
   72.2864   40.5129   39.7291 H   0  0  0  0  0  0  0  0  0  0  0  0
   74.5548   37.1071   39.3838 H   0  0  0  0  0  0  0  0  0  0  0  0
   74.7924   38.1670   37.9851 H   0  0  0  0  0  0  0  0  0  0  0  0
   75.4576   38.7755   40.9048 H   0  0  0  0  0  0  0  0  0  0  0  0
   76.6417   38.4606   39.6422 H   0  0  0  0  0  0  0  0  0  0  0  0
  1  2  1  0  0  0  0
  1 21  1  0  0  0  0
  1 22  1  0  0  0  0
  2  3  1  0  0  0  0
  2 12  2  0  0  0  0
  3  9  2  0  0  0  0
  3  4  1  0  0  0  0
  4  5  2  0  0  0  0
  4  6  1  0  0  0  0
  6  7  1  0  0  0  0
 13  6  1  0  0  0  0
  7  8  2  0  0  0  0
  7  9  1  0  0  0  0
  9 10  1  0  0  0  0
 10 23  1  0  0  0  0
 10 11  2  0  0  0  0
 11 12  1  0  0  0  0
 11 24  1  0  0  0  0
 12 25  1  0  0  0  0
 13 26  1  0  0  0  0
 13 14  1  0  0  0  0
 13 20  1  0  0  0  0
 14 15  2  0  0  0  0
 14 16  1  0  0  0  0
 16 27  1  0  0  0  0
 16 17  1  0  0  0  0
 17 18  2  0  0  0  0
 17 19  1  0  0  0  0
 19 28  1  0  0  0  0
 19 29  1  0  0  0  0
 19 20  1  0  0  0  0
 20 30  1  0  0  0  0
 20 31  1  0  0  0  0
M  ZZC   1 n1
M  ZZC   2 c1
M  ZZC   3 c2
M  ZZC   4 c3
M  ZZC   5 o1
M  ZZC   6 n2
M  ZZC   7 c4
M  ZZC   8 o2
M  ZZC   9 c5
M  ZZC  10 c6
M  ZZC  11 c7
M  ZZC  12 c8
M  ZZC  13 c9
M  ZZC  14 c10
M  ZZC  15 o3
M  ZZC  16 n3
M  ZZC  17 c11
M  ZZC  18 o4
M  ZZC  19 c12
M  ZZC  20 c13
M  ZZC  21 h11
M  ZZC  22 h12
M  ZZC  23 h61
M  ZZC  24 h71
M  ZZC  25 h81
M  ZZC  26 h91
M  ZZC  27 h31
M  ZZC  28 h121
M  ZZC  29 h122
M  ZZC  30 h131
M  ZZC  31 h132
M  ZZM   1 40
M  ZZI   1 224
M  ZZM   2 37
M  ZZI   2 124
M  ZZM   3 37
M  ZZI   3 124
M  ZZM   4 3
M  ZZI   4 121
M  ZZM   5 7
M  ZZI   5 81
M  ZZM   6 10
M  ZZI   6 192
M  ZZM   7 3
M  ZZI   7 121
M  ZZM   8 7
M  ZZI   8 81
M  ZZM   9 37
M  ZZI   9 124
M  ZZM  10 37
M  ZZI  10 125
M  ZZM  11 37
M  ZZI  11 125
M  ZZM  12 37
M  ZZI  12 125
M  ZZM  13 1
M  ZZI  13 113
M  ZZM  14 3
M  ZZI  14 121
M  ZZM  15 7
M  ZZI  15 81
M  ZZM  16 10
M  ZZI  16 191
M  ZZM  17 3
M  ZZI  17 121
M  ZZM  18 7
M  ZZI  18 81
M  ZZM  19 1
M  ZZI  19 112
M  ZZM  20 1
M  ZZI  20 112
M  ZZM  21 28
M  ZZI  21 11
M  ZZM  22 28
M  ZZI  22 11
M  ZZM  23 5
M  ZZI  23 1
M  ZZM  24 5
M  ZZI  24 1
M  ZZM  25 5
M  ZZI  25 1
M  ZZM  26 5
M  ZZI  26 1
M  ZZM  27 28
M  ZZI  27 11
M  ZZM  28 5
M  ZZI  28 1
M  ZZM  29 5
M  ZZI  29 1
M  ZZM  30 5
M  ZZI  30 1
M  ZZM  31 5
M  ZZI  31 1
M  END
> <IX>
1

> <NAME>
Cereblon_5L2T_1.pdb

> <Score>
-21.268022

> <Natom>
31

> <Nflex>
1

> <Hbond>
-4.788603

> <Hphob>
-3.556671

> <VwInt>
-24.129682

> <Dsolv>
15.217857

> <SolEl>
6.254024

> <Eintl>
2.031243

> <RecConf>
ND

> <projPath>
Cereblon_maps/

> <NAME_>
Cereblon_5L2T_1.pdb

$$$$
