Cereblon_6NUQ_9.pdb
  MOLSOFT 04032206293D

 30 32  0  0  1  0  0  0  0  0999 V2000
   76.1655   41.2814   40.0339 C   0  0  0  0  0  0  0  0  0  0  0  0
   75.1565   40.8970   39.1680 C   0  0  0  0  0  0  0  0  0  0  0  0
   74.8379   39.5757   39.0190 C   0  0  0  0  0  0  0  0  0  0  0  0
   73.7395   39.4728   38.0504 C   0  0  0  0  0  0  0  0  0  0  0  0
   73.2166   38.4207   37.7121 O   0  0  0  0  0  0  0  0  0  0  0  0
   73.4419   40.7633   37.6524 N   0  0  0  0  0  0  0  0  0  0  0  0
   72.2845   41.1293   36.8224 C   0  0  1  0  0  0  0  0  0  0  0  0
   71.0666   41.3424   37.7254 C   0  0  0  0  0  0  0  0  0  0  0  0
   70.8574   40.6968   38.7419 O   0  0  0  0  0  0  0  0  0  0  0  0
   70.1461   42.2682   37.2979 N   0  0  0  0  0  0  0  0  0  0  0  0
   70.1718   43.0539   36.1794 C   0  0  0  0  0  0  0  0  0  0  0  0
   69.3372   43.9265   36.0032 O   0  0  0  0  0  0  0  0  0  0  0  0
   71.2763   42.7508   35.2037 C   0  0  0  0  0  0  0  0  0  0  0  0
   72.5376   42.3620   35.9535 C   0  0  0  0  0  0  0  0  0  0  0  0
   74.2841   41.7411   38.3152 C   0  0  0  0  0  0  0  0  0  0  0  0
   75.4801   38.5658   39.7120 C   0  0  0  0  0  0  0  0  0  0  0  0
   76.4896   38.9445   40.5867 C   0  0  0  0  0  0  0  0  0  0  0  0
   76.8244   40.2869   40.7455 C   0  0  0  0  0  0  0  0  0  0  0  0
   76.4402   42.3250   40.1570 H   0  0  0  0  0  0  0  0  0  0  0  0
   72.0443   40.2700   36.1856 H   0  0  0  0  0  0  0  0  0  0  0  0
   69.3582   42.4232   37.9100 H   0  0  0  0  0  0  0  0  0  0  0  0
   70.9456   41.9483   34.5361 H   0  0  0  0  0  0  0  0  0  0  0  0
   71.4581   43.6442   34.6005 H   0  0  0  0  0  0  0  0  0  0  0  0
   73.3484   42.1614   35.2463 H   0  0  0  0  0  0  0  0  0  0  0  0
   72.8568   43.2118   36.5676 H   0  0  0  0  0  0  0  0  0  0  0  0
   73.6578   42.3968   38.9221 H   0  0  0  0  0  0  0  0  0  0  0  0
   74.8621   42.3023   37.5729 H   0  0  0  0  0  0  0  0  0  0  0  0
   75.2054   37.5238   39.5804 H   0  0  0  0  0  0  0  0  0  0  0  0
   77.0244   38.1875   41.1527 H   0  0  0  0  0  0  0  0  0  0  0  0
   77.6180   40.5623   41.4328 H   0  0  0  0  0  0  0  0  0  0  0  0
  1 19  1  0  0  0  0
  1 18  2  0  0  0  0
  1  2  1  0  0  0  0
  2  3  2  0  0  0  0
  2 15  1  0  0  0  0
  3 16  1  0  0  0  0
  3  4  1  0  0  0  0
  4  6  1  0  0  0  0
  4  5  2  0  0  0  0
  6 15  1  0  0  0  0
  7  6  1  0  0  0  0
  7 20  1  0  0  0  0
  7  8  1  0  0  0  0
  7 14  1  0  0  0  0
  8  9  2  0  0  0  0
  8 10  1  0  0  0  0
 10 21  1  0  0  0  0
 10 11  1  0  0  0  0
 11 12  2  0  0  0  0
 11 13  1  0  0  0  0
 13 22  1  0  0  0  0
 13 23  1  0  0  0  0
 13 14  1  0  0  0  0
 14 24  1  0  0  0  0
 14 25  1  0  0  0  0
 15 26  1  0  0  0  0
 15 27  1  0  0  0  0
 16 17  2  0  0  0  0
 16 28  1  0  0  0  0
 17 18  1  0  0  0  0
 17 29  1  0  0  0  0
 18 30  1  0  0  0  0
M  ZZC   1 c1
M  ZZC   2 c2
M  ZZC   3 c3
M  ZZC   4 c4
M  ZZC   5 o1
M  ZZC   6 n1
M  ZZC   7 c5
M  ZZC   8 c6
M  ZZC   9 o2
M  ZZC  10 n2
M  ZZC  11 c7
M  ZZC  12 o3
M  ZZC  13 c8
M  ZZC  14 c9
M  ZZC  15 c10
M  ZZC  16 c11
M  ZZC  17 c12
M  ZZC  18 c13
M  ZZC  19 h11
M  ZZC  20 h51
M  ZZC  21 h21
M  ZZC  22 h81
M  ZZC  23 h82
M  ZZC  24 h91
M  ZZC  25 h92
M  ZZC  26 h101
M  ZZC  27 h102
M  ZZC  28 h111
M  ZZC  29 h121
M  ZZC  30 h131
M  ZZM   1 37
M  ZZI   1 125
M  ZZM   2 37
M  ZZI   2 124
M  ZZM   3 37
M  ZZI   3 124
M  ZZM   4 3
M  ZZI   4 121
M  ZZM   5 7
M  ZZI   5 81
M  ZZM   6 10
M  ZZI   6 192
M  ZZM   7 1
M  ZZI   7 113
M  ZZM   8 3
M  ZZI   8 121
M  ZZM   9 7
M  ZZI   9 81
M  ZZM  10 10
M  ZZI  10 191
M  ZZM  11 3
M  ZZI  11 121
M  ZZM  12 7
M  ZZI  12 81
M  ZZM  13 1
M  ZZI  13 112
M  ZZM  14 1
M  ZZI  14 112
M  ZZM  15 1
M  ZZI  15 112
M  ZZM  16 37
M  ZZI  16 125
M  ZZM  17 37
M  ZZI  17 125
M  ZZM  18 37
M  ZZI  18 125
M  ZZM  19 5
M  ZZI  19 1
M  ZZM  20 5
M  ZZI  20 1
M  ZZM  21 28
M  ZZI  21 11
M  ZZM  22 5
M  ZZI  22 1
M  ZZM  23 5
M  ZZI  23 1
M  ZZM  24 5
M  ZZI  24 1
M  ZZM  25 5
M  ZZI  25 1
M  ZZM  26 5
M  ZZI  26 1
M  ZZM  27 5
M  ZZI  27 1
M  ZZM  28 5
M  ZZI  28 1
M  ZZM  29 5
M  ZZI  29 1
M  ZZM  30 5
M  ZZI  30 1
M  END
> <IX>
1

> <NAME>
Cereblon_6NUQ_9.pdb

> <Score>
-17.437965

> <Natom>
30

> <Nflex>
1

> <Hbond>
-3.282331

> <Hphob>
-3.947639

> <VwInt>
-22.657165

> <Dsolv>
11.736898

> <SolEl>
9.28093

> <Eintl>
1.067213

> <RecConf>
ND

> <projPath>
Cereblon_maps/

> <NAME_>
Cereblon_6NUQ_9.pdb

$$$$
