Cereblon_6C7R_3.pdb
  MOLSOFT 04032206283D

 31 33  0  0  1  0  0  0  0  0999 V2000
   78.8140   41.6672   43.8046 N   0  0  0  0  0  0  0  0  0  0  0  0
   78.8929   42.4244   42.6260 C   0  0  0  0  0  0  0  0  0  0  0  0
   78.0907   42.1564   41.5300 C   0  0  0  0  0  0  0  0  0  0  0  0
   77.1687   41.0473   41.3220 C   0  0  0  0  0  0  0  0  0  0  0  0
   76.9867   40.1641   42.1461 O   0  0  0  0  0  0  0  0  0  0  0  0
   76.6310   41.2153   40.0613 N   0  0  0  0  0  0  0  0  0  0  0  0
   77.1567   42.3330   39.4461 C   0  0  0  0  0  0  0  0  0  0  0  0
   76.9488   42.7524   38.3150 O   0  0  0  0  0  0  0  0  0  0  0  0
   78.0885   42.9272   40.4071 C   0  0  0  0  0  0  0  0  0  0  0  0
   78.9032   44.0344   40.2860 C   0  0  0  0  0  0  0  0  0  0  0  0
   79.7227   44.3303   41.3692 C   0  0  0  0  0  0  0  0  0  0  0  0
   79.7095   43.5466   42.5248 C   0  0  0  0  0  0  0  0  0  0  0  0
   75.6130   40.3773   39.4232 C   0  0  2  0  0  0  0  0  0  0  0  0
   74.2414   40.9578   39.7234 C   0  0  0  0  0  0  0  0  0  0  0  0
   74.0724   42.1362   39.9866 O   0  0  0  0  0  0  0  0  0  0  0  0
   73.1798   40.0956   39.5965 N   0  0  0  0  0  0  0  0  0  0  0  0
   73.2045   38.7587   39.2810 C   0  0  0  0  0  0  0  0  0  0  0  0
   72.1790   38.1105   39.1554 O   0  0  0  0  0  0  0  0  0  0  0  0
   74.5682   38.1535   39.0490 C   0  0  0  0  0  0  0  0  0  0  0  0
   75.6426   38.9037   39.8159 C   0  0  0  0  0  0  0  0  0  0  0  0
   79.5375   41.7578   44.5148 H   0  0  0  0  0  0  0  0  0  0  0  0
   78.2652   40.8058   43.7914 H   0  0  0  0  0  0  0  0  0  0  0  0
   78.8977   44.6415   39.3884 H   0  0  0  0  0  0  0  0  0  0  0  0
   80.3765   45.1941   41.3227 H   0  0  0  0  0  0  0  0  0  0  0  0
   80.3477   43.8219   43.3590 H   0  0  0  0  0  0  0  0  0  0  0  0
   75.7508   40.4757   38.3453 H   0  0  0  0  0  0  0  0  0  0  0  0
   72.2640   40.4994   39.7489 H   0  0  0  0  0  0  0  0  0  0  0  0
   74.5462   37.1082   39.3732 H   0  0  0  0  0  0  0  0  0  0  0  0
   74.7672   38.1700   37.9730 H   0  0  0  0  0  0  0  0  0  0  0  0
   75.4526   38.7807   40.8860 H   0  0  0  0  0  0  0  0  0  0  0  0
   76.6278   38.4711   39.6139 H   0  0  0  0  0  0  0  0  0  0  0  0
  1  2  1  0  0  0  0
  1 21  1  0  0  0  0
  1 22  1  0  0  0  0
  2  3  1  0  0  0  0
  2 12  2  0  0  0  0
  3  9  2  0  0  0  0
  3  4  1  0  0  0  0
  4  5  2  0  0  0  0
  4  6  1  0  0  0  0
  6  7  1  0  0  0  0
 13  6  1  0  0  0  0
  7  8  2  0  0  0  0
  7  9  1  0  0  0  0
  9 10  1  0  0  0  0
 10 23  1  0  0  0  0
 10 11  2  0  0  0  0
 11 12  1  0  0  0  0
 11 24  1  0  0  0  0
 12 25  1  0  0  0  0
 13 26  1  0  0  0  0
 13 14  1  0  0  0  0
 13 20  1  0  0  0  0
 14 15  2  0  0  0  0
 14 16  1  0  0  0  0
 16 27  1  0  0  0  0
 16 17  1  0  0  0  0
 17 18  2  0  0  0  0
 17 19  1  0  0  0  0
 19 28  1  0  0  0  0
 19 29  1  0  0  0  0
 19 20  1  0  0  0  0
 20 30  1  0  0  0  0
 20 31  1  0  0  0  0
M  ZZC   1 n1
M  ZZC   2 c1
M  ZZC   3 c2
M  ZZC   4 c3
M  ZZC   5 o1
M  ZZC   6 n2
M  ZZC   7 c4
M  ZZC   8 o2
M  ZZC   9 c5
M  ZZC  10 c6
M  ZZC  11 c7
M  ZZC  12 c8
M  ZZC  13 c9
M  ZZC  14 c10
M  ZZC  15 o3
M  ZZC  16 n3
M  ZZC  17 c11
M  ZZC  18 o4
M  ZZC  19 c12
M  ZZC  20 c13
M  ZZC  21 h11
M  ZZC  22 h12
M  ZZC  23 h61
M  ZZC  24 h71
M  ZZC  25 h81
M  ZZC  26 h91
M  ZZC  27 h31
M  ZZC  28 h121
M  ZZC  29 h122
M  ZZC  30 h131
M  ZZC  31 h132
M  ZZM   1 40
M  ZZI   1 224
M  ZZM   2 37
M  ZZI   2 124
M  ZZM   3 37
M  ZZI   3 124
M  ZZM   4 3
M  ZZI   4 121
M  ZZM   5 7
M  ZZI   5 81
M  ZZM   6 10
M  ZZI   6 192
M  ZZM   7 3
M  ZZI   7 121
M  ZZM   8 7
M  ZZI   8 81
M  ZZM   9 37
M  ZZI   9 124
M  ZZM  10 37
M  ZZI  10 125
M  ZZM  11 37
M  ZZI  11 125
M  ZZM  12 37
M  ZZI  12 125
M  ZZM  13 1
M  ZZI  13 113
M  ZZM  14 3
M  ZZI  14 121
M  ZZM  15 7
M  ZZI  15 81
M  ZZM  16 10
M  ZZI  16 191
M  ZZM  17 3
M  ZZI  17 121
M  ZZM  18 7
M  ZZI  18 81
M  ZZM  19 1
M  ZZI  19 112
M  ZZM  20 1
M  ZZI  20 112
M  ZZM  21 28
M  ZZI  21 11
M  ZZM  22 28
M  ZZI  22 11
M  ZZM  23 5
M  ZZI  23 1
M  ZZM  24 5
M  ZZI  24 1
M  ZZM  25 5
M  ZZI  25 1
M  ZZM  26 5
M  ZZI  26 1
M  ZZM  27 28
M  ZZI  27 11
M  ZZM  28 5
M  ZZI  28 1
M  ZZM  29 5
M  ZZI  29 1
M  ZZM  30 5
M  ZZI  30 1
M  ZZM  31 5
M  ZZI  31 1
M  END
> <IX>
1

> <NAME>
Cereblon_6C7R_3.pdb

> <Score>
-18.582917

> <Natom>
31

> <Nflex>
1

> <Hbond>
-3.681826

> <Hphob>
-3.576515

> <VwInt>
-24.334881

> <Dsolv>
15.197862

> <SolEl>
6.699346

> <Eintl>
1.738807

> <RecConf>
ND

> <projPath>
Cereblon_maps/

> <NAME_>
Cereblon_6C7R_3.pdb

$$$$
