Cereblon_6Z45_10.pdb
  MOLSOFT 04032206303D

 29 31  0  0  1  0  0  0  0  0999 V2000
   79.0038   42.4920   42.6743 C   0  0  0  0  0  0  0  0  0  0  0  0
   78.1854   42.1978   41.5981 C   0  0  0  0  0  0  0  0  0  0  0  0
   77.2671   41.0802   41.4122 C   0  0  0  0  0  0  0  0  0  0  0  0
   77.0860   40.2187   42.2588 O   0  0  0  0  0  0  0  0  0  0  0  0
   76.7271   41.2232   40.1470 N   0  0  0  0  0  0  0  0  0  0  0  0
   77.2238   42.3500   39.5246 C   0  0  0  0  0  0  0  0  0  0  0  0
   76.9887   42.7687   38.3985 O   0  0  0  0  0  0  0  0  0  0  0  0
   78.1583   42.9613   40.4702 C   0  0  0  0  0  0  0  0  0  0  0  0
   78.9573   44.0777   40.3282 C   0  0  0  0  0  0  0  0  0  0  0  0
   79.7981   44.3876   41.3914 C   0  0  0  0  0  0  0  0  0  0  0  0
   79.8221   43.6078   42.5488 C   0  0  0  0  0  0  0  0  0  0  0  0
   75.7189   40.3677   39.5146 C   0  0  2  0  0  0  0  0  0  0  0  0
   74.3395   40.9358   39.8047 C   0  0  0  0  0  0  0  0  0  0  0  0
   74.1506   42.1218   40.0184 O   0  0  0  0  0  0  0  0  0  0  0  0
   73.2891   40.0538   39.7313 N   0  0  0  0  0  0  0  0  0  0  0  0
   73.3262   38.7090   39.4550 C   0  0  0  0  0  0  0  0  0  0  0  0
   72.3096   38.0372   39.3935 O   0  0  0  0  0  0  0  0  0  0  0  0
   74.6914   38.1279   39.1775 C   0  0  0  0  0  0  0  0  0  0  0  0
   75.7737   38.8969   39.9153 C   0  0  0  0  0  0  0  0  0  0  0  0
   79.0151   41.8762   43.5692 H   0  0  0  0  0  0  0  0  0  0  0  0
   78.9270   44.6785   39.4275 H   0  0  0  0  0  0  0  0  0  0  0  0
   80.4458   45.2540   41.3232 H   0  0  0  0  0  0  0  0  0  0  0  0
   80.4886   43.8753   43.3635 H   0  0  0  0  0  0  0  0  0  0  0  0
   75.8578   40.4558   38.4350 H   0  0  0  0  0  0  0  0  0  0  0  0
   72.3708   40.4474   39.8948 H   0  0  0  0  0  0  0  0  0  0  0  0
   74.6981   37.0820   39.5008 H   0  0  0  0  0  0  0  0  0  0  0  0
   74.8527   38.1510   38.0955 H   0  0  0  0  0  0  0  0  0  0  0  0
   76.7595   38.4758   39.6920 H   0  0  0  0  0  0  0  0  0  0  0  0
   75.6111   38.7764   40.9899 H   0  0  0  0  0  0  0  0  0  0  0  0
  1 20  1  0  0  0  0
  1  2  1  0  0  0  0
  1 11  2  0  0  0  0
  2  3  1  0  0  0  0
  2  8  2  0  0  0  0
  3  4  2  0  0  0  0
  3  5  1  0  0  0  0
  5  6  1  0  0  0  0
 12  5  1  0  0  0  0
  6  7  2  0  0  0  0
  6  8  1  0  0  0  0
  8  9  1  0  0  0  0
  9 21  1  0  0  0  0
  9 10  2  0  0  0  0
 10 22  1  0  0  0  0
 10 11  1  0  0  0  0
 11 23  1  0  0  0  0
 12 24  1  0  0  0  0
 12 13  1  0  0  0  0
 12 19  1  0  0  0  0
 13 14  2  0  0  0  0
 13 15  1  0  0  0  0
 15 25  1  0  0  0  0
 15 16  1  0  0  0  0
 16 17  2  0  0  0  0
 16 18  1  0  0  0  0
 18 26  1  0  0  0  0
 18 27  1  0  0  0  0
 18 19  1  0  0  0  0
 19 28  1  0  0  0  0
 19 29  1  0  0  0  0
M  ZZC   1 c1
M  ZZC   2 c2
M  ZZC   3 c3
M  ZZC   4 o1
M  ZZC   5 n1
M  ZZC   6 c4
M  ZZC   7 o2
M  ZZC   8 c5
M  ZZC   9 c6
M  ZZC  10 c7
M  ZZC  11 c8
M  ZZC  12 c9
M  ZZC  13 c10
M  ZZC  14 o3
M  ZZC  15 n2
M  ZZC  16 c11
M  ZZC  17 o4
M  ZZC  18 c12
M  ZZC  19 c13
M  ZZC  20 h11
M  ZZC  21 h61
M  ZZC  22 h71
M  ZZC  23 h81
M  ZZC  24 h91
M  ZZC  25 h21
M  ZZC  26 h121
M  ZZC  27 h122
M  ZZC  28 h131
M  ZZC  29 h132
M  ZZM   1 37
M  ZZI   1 125
M  ZZM   2 37
M  ZZI   2 124
M  ZZM   3 3
M  ZZI   3 121
M  ZZM   4 7
M  ZZI   4 81
M  ZZM   5 10
M  ZZI   5 192
M  ZZM   6 3
M  ZZI   6 121
M  ZZM   7 7
M  ZZI   7 81
M  ZZM   8 37
M  ZZI   8 124
M  ZZM   9 37
M  ZZI   9 125
M  ZZM  10 37
M  ZZI  10 125
M  ZZM  11 37
M  ZZI  11 125
M  ZZM  12 1
M  ZZI  12 113
M  ZZM  13 3
M  ZZI  13 121
M  ZZM  14 7
M  ZZI  14 81
M  ZZM  15 10
M  ZZI  15 191
M  ZZM  16 3
M  ZZI  16 121
M  ZZM  17 7
M  ZZI  17 81
M  ZZM  18 1
M  ZZI  18 112
M  ZZM  19 1
M  ZZI  19 112
M  ZZM  20 5
M  ZZI  20 1
M  ZZM  21 5
M  ZZI  21 1
M  ZZM  22 5
M  ZZI  22 1
M  ZZM  23 5
M  ZZI  23 1
M  ZZM  24 5
M  ZZI  24 1
M  ZZM  25 28
M  ZZI  25 11
M  ZZM  26 5
M  ZZI  26 1
M  ZZM  27 5
M  ZZI  27 1
M  ZZM  28 5
M  ZZI  28 1
M  ZZM  29 5
M  ZZI  29 1
M  END
> <IX>
1

> <NAME>
Cereblon_6Z45_10.pdb

> <Score>
-19.327912

> <Natom>
29

> <Nflex>
1

> <Hbond>
-3.365494

> <Hphob>
-3.496116

> <VwInt>
-22.688736

> <Dsolv>
12.035362

> <SolEl>
5.622615

> <Eintl>
1.467458

> <RecConf>
ND

> <projPath>
Cereblon_maps/

> <NAME_>
Cereblon_6Z45_10.pdb

$$$$
