Cereblon_5TOB_11.pdb
  MOLSOFT 04032206263D

 31 33  0  0  1  0  0  0  0  0999 V2000
   81.6209   53.0742   19.7094 N   0  0  0  0  0  0  0  0  0  0  0  0
   81.9323   54.4398   19.7382 C   0  0  0  0  0  0  0  0  0  0  0  0
   81.2309   55.3369   20.5254 C   0  0  0  0  0  0  0  0  0  0  0  0
   80.0299   55.1240   21.3284 C   0  0  0  0  0  0  0  0  0  0  0  0
   79.4225   54.0648   21.4017 O   0  0  0  0  0  0  0  0  0  0  0  0
   79.7609   56.3260   21.9460 N   0  0  0  0  0  0  0  0  0  0  0  0
   80.6734   57.2919   21.5758 C   0  0  0  0  0  0  0  0  0  0  0  0
   80.7472   58.4686   21.8987 O   0  0  0  0  0  0  0  0  0  0  0  0
   81.6111   56.6372   20.6670 C   0  0  0  0  0  0  0  0  0  0  0  0
   82.7275   57.1499   20.0334 C   0  0  0  0  0  0  0  0  0  0  0  0
   83.4603   56.2668   19.2504 C   0  0  0  0  0  0  0  0  0  0  0  0
   83.0782   54.9302   19.1250 C   0  0  0  0  0  0  0  0  0  0  0  0
   78.6177   56.5122   22.8393 C   0  0  2  0  0  0  0  0  0  0  0  0
   77.4677   57.1882   22.1175 C   0  0  0  0  0  0  0  0  0  0  0  0
   77.3324   57.1802   20.9029 O   0  0  0  0  0  0  0  0  0  0  0  0
   76.5175   57.7379   22.9453 N   0  0  0  0  0  0  0  0  0  0  0  0
   76.4991   57.7902   24.3185 C   0  0  0  0  0  0  0  0  0  0  0  0
   75.5317   58.2107   24.9323 O   0  0  0  0  0  0  0  0  0  0  0  0
   77.7212   57.2491   25.0227 C   0  0  0  0  0  0  0  0  0  0  0  0
   78.9349   57.2870   24.1145 C   0  0  0  0  0  0  0  0  0  0  0  0
   82.0399   52.5262   18.9631 H   0  0  0  0  0  0  0  0  0  0  0  0
   80.6521   52.8415   19.9269 H   0  0  0  0  0  0  0  0  0  0  0  0
   83.0267   58.1869   20.1520 H   0  0  0  0  0  0  0  0  0  0  0  0
   84.3542   56.6168   18.7412 H   0  0  0  0  0  0  0  0  0  0  0  0
   83.6889   54.2562   18.5329 H   0  0  0  0  0  0  0  0  0  0  0  0
   78.2520   55.5154   23.1007 H   0  0  0  0  0  0  0  0  0  0  0  0
   75.7241   58.1576   22.4795 H   0  0  0  0  0  0  0  0  0  0  0  0
   77.9077   57.8480   25.9198 H   0  0  0  0  0  0  0  0  0  0  0  0
   77.5114   56.2234   25.3357 H   0  0  0  0  0  0  0  0  0  0  0  0
   79.1868   58.3292   23.8910 H   0  0  0  0  0  0  0  0  0  0  0  0
   79.7978   56.8541   24.6285 H   0  0  0  0  0  0  0  0  0  0  0  0
  1  2  1  0  0  0  0
  1 21  1  0  0  0  0
  1 22  1  0  0  0  0
  2  3  1  0  0  0  0
  2 12  2  0  0  0  0
  3  9  2  0  0  0  0
  3  4  1  0  0  0  0
  4  5  2  0  0  0  0
  4  6  1  0  0  0  0
  6  7  1  0  0  0  0
 13  6  1  0  0  0  0
  7  8  2  0  0  0  0
  7  9  1  0  0  0  0
  9 10  1  0  0  0  0
 10 23  1  0  0  0  0
 10 11  2  0  0  0  0
 11 12  1  0  0  0  0
 11 24  1  0  0  0  0
 12 25  1  0  0  0  0
 13 26  1  0  0  0  0
 13 14  1  0  0  0  0
 13 20  1  0  0  0  0
 14 15  2  0  0  0  0
 14 16  1  0  0  0  0
 16 27  1  0  0  0  0
 16 17  1  0  0  0  0
 17 18  2  0  0  0  0
 17 19  1  0  0  0  0
 19 28  1  0  0  0  0
 19 29  1  0  0  0  0
 19 20  1  0  0  0  0
 20 30  1  0  0  0  0
 20 31  1  0  0  0  0
M  ZZC   1 n1
M  ZZC   2 c1
M  ZZC   3 c2
M  ZZC   4 c3
M  ZZC   5 o1
M  ZZC   6 n2
M  ZZC   7 c4
M  ZZC   8 o2
M  ZZC   9 c5
M  ZZC  10 c6
M  ZZC  11 c7
M  ZZC  12 c8
M  ZZC  13 c9
M  ZZC  14 c10
M  ZZC  15 o3
M  ZZC  16 n3
M  ZZC  17 c11
M  ZZC  18 o4
M  ZZC  19 c12
M  ZZC  20 c13
M  ZZC  21 h11
M  ZZC  22 h12
M  ZZC  23 h61
M  ZZC  24 h71
M  ZZC  25 h81
M  ZZC  26 h91
M  ZZC  27 h31
M  ZZC  28 h121
M  ZZC  29 h122
M  ZZC  30 h131
M  ZZC  31 h132
M  ZZM   1 40
M  ZZI   1 224
M  ZZM   2 37
M  ZZI   2 124
M  ZZM   3 37
M  ZZI   3 124
M  ZZM   4 3
M  ZZI   4 121
M  ZZM   5 7
M  ZZI   5 81
M  ZZM   6 10
M  ZZI   6 192
M  ZZM   7 3
M  ZZI   7 121
M  ZZM   8 7
M  ZZI   8 81
M  ZZM   9 37
M  ZZI   9 124
M  ZZM  10 37
M  ZZI  10 125
M  ZZM  11 37
M  ZZI  11 125
M  ZZM  12 37
M  ZZI  12 125
M  ZZM  13 1
M  ZZI  13 113
M  ZZM  14 3
M  ZZI  14 121
M  ZZM  15 7
M  ZZI  15 81
M  ZZM  16 10
M  ZZI  16 191
M  ZZM  17 3
M  ZZI  17 121
M  ZZM  18 7
M  ZZI  18 81
M  ZZM  19 1
M  ZZI  19 112
M  ZZM  20 1
M  ZZI  20 112
M  ZZM  21 28
M  ZZI  21 11
M  ZZM  22 28
M  ZZI  22 11
M  ZZM  23 5
M  ZZI  23 1
M  ZZM  24 5
M  ZZI  24 1
M  ZZM  25 5
M  ZZI  25 1
M  ZZM  26 5
M  ZZI  26 1
M  ZZM  27 28
M  ZZI  27 11
M  ZZM  28 5
M  ZZI  28 1
M  ZZM  29 5
M  ZZI  29 1
M  ZZM  30 5
M  ZZI  30 1
M  ZZM  31 5
M  ZZI  31 1
M  END
> <IX>
1

> <NAME>
Cereblon_5TOB_11.pdb

> <Score>
-23.542987

> <Natom>
31

> <Nflex>
1

> <Hbond>
-4.569216

> <Hphob>
-3.298696

> <VwInt>
-24.66644

> <Dsolv>
13.946763

> <SolEl>
5.004608

> <Eintl>
0.884306

> <RecConf>
ND

> <projPath>
Cereblon_maps/

> <NAME_>
Cereblon_5TOB_11.pdb

$$$$
