Cereblon_5E80_7.pdb
  MOLSOFT 04032206243D

 31 33  0  0  1  0  0  0  0  0999 V2000
   78.7274   41.7130   43.8958 N   0  0  0  0  0  0  0  0  0  0  0  0
   78.7880   42.4969   42.7323 C   0  0  0  0  0  0  0  0  0  0  0  0
   78.0709   42.1747   41.5922 C   0  0  0  0  0  0  0  0  0  0  0  0
   77.1616   41.0579   41.3694 C   0  0  0  0  0  0  0  0  0  0  0  0
   76.9422   40.1973   42.2082 O   0  0  0  0  0  0  0  0  0  0  0  0
   76.6668   41.2033   40.0889 N   0  0  0  0  0  0  0  0  0  0  0  0
   77.2006   42.3193   39.4781 C   0  0  0  0  0  0  0  0  0  0  0  0
   76.9991   42.7399   38.3468 O   0  0  0  0  0  0  0  0  0  0  0  0
   78.1122   42.9208   40.4535 C   0  0  0  0  0  0  0  0  0  0  0  0
   78.9342   44.0229   40.3395 C   0  0  0  0  0  0  0  0  0  0  0  0
   79.7257   44.3296   41.4410 C   0  0  0  0  0  0  0  0  0  0  0  0
   79.6569   43.5784   42.6165 C   0  0  0  0  0  0  0  0  0  0  0  0
   75.6523   40.3677   39.4434 C   0  0  2  0  0  0  0  0  0  0  0  0
   74.2800   40.9526   39.7313 C   0  0  0  0  0  0  0  0  0  0  0  0
   74.1100   42.1345   39.9836 O   0  0  0  0  0  0  0  0  0  0  0  0
   73.2156   40.0922   39.6144 N   0  0  0  0  0  0  0  0  0  0  0  0
   73.2372   38.7518   39.3140 C   0  0  0  0  0  0  0  0  0  0  0  0
   72.2119   38.0999   39.2079 O   0  0  0  0  0  0  0  0  0  0  0  0
   74.5987   38.1477   39.0696 C   0  0  0  0  0  0  0  0  0  0  0  0
   75.6780   38.8934   39.8349 C   0  0  0  0  0  0  0  0  0  0  0  0
   78.9784   42.1390   44.7866 H   0  0  0  0  0  0  0  0  0  0  0  0
   78.0294   40.9684   43.9236 H   0  0  0  0  0  0  0  0  0  0  0  0
   78.9621   44.6136   39.4316 H   0  0  0  0  0  0  0  0  0  0  0  0
   80.4027   45.1751   41.3903 H   0  0  0  0  0  0  0  0  0  0  0  0
   80.2924   43.8467   43.4550 H   0  0  0  0  0  0  0  0  0  0  0  0
   75.7992   40.4644   38.3664 H   0  0  0  0  0  0  0  0  0  0  0  0
   72.3015   40.4999   39.7673 H   0  0  0  0  0  0  0  0  0  0  0  0
   74.5797   37.1007   39.3889 H   0  0  0  0  0  0  0  0  0  0  0  0
   74.7904   38.1711   37.9924 H   0  0  0  0  0  0  0  0  0  0  0  0
   75.4914   38.7681   40.9051 H   0  0  0  0  0  0  0  0  0  0  0  0
   76.6612   38.4578   39.6297 H   0  0  0  0  0  0  0  0  0  0  0  0
  1  2  1  0  0  0  0
  1 21  1  0  0  0  0
  1 22  1  0  0  0  0
  2  3  1  0  0  0  0
  2 12  2  0  0  0  0
  3  9  2  0  0  0  0
  3  4  1  0  0  0  0
  4  5  2  0  0  0  0
  4  6  1  0  0  0  0
  6  7  1  0  0  0  0
 13  6  1  0  0  0  0
  7  8  2  0  0  0  0
  7  9  1  0  0  0  0
  9 10  1  0  0  0  0
 10 23  1  0  0  0  0
 10 11  2  0  0  0  0
 11 12  1  0  0  0  0
 11 24  1  0  0  0  0
 12 25  1  0  0  0  0
 13 26  1  0  0  0  0
 13 14  1  0  0  0  0
 13 20  1  0  0  0  0
 14 15  2  0  0  0  0
 14 16  1  0  0  0  0
 16 27  1  0  0  0  0
 16 17  1  0  0  0  0
 17 18  2  0  0  0  0
 17 19  1  0  0  0  0
 19 28  1  0  0  0  0
 19 29  1  0  0  0  0
 19 20  1  0  0  0  0
 20 30  1  0  0  0  0
 20 31  1  0  0  0  0
M  ZZC   1 n1
M  ZZC   2 c1
M  ZZC   3 c2
M  ZZC   4 c3
M  ZZC   5 o1
M  ZZC   6 n2
M  ZZC   7 c4
M  ZZC   8 o2
M  ZZC   9 c5
M  ZZC  10 c6
M  ZZC  11 c7
M  ZZC  12 c8
M  ZZC  13 c9
M  ZZC  14 c10
M  ZZC  15 o3
M  ZZC  16 n3
M  ZZC  17 c11
M  ZZC  18 o4
M  ZZC  19 c12
M  ZZC  20 c13
M  ZZC  21 h11
M  ZZC  22 h12
M  ZZC  23 h61
M  ZZC  24 h71
M  ZZC  25 h81
M  ZZC  26 h91
M  ZZC  27 h31
M  ZZC  28 h121
M  ZZC  29 h122
M  ZZC  30 h131
M  ZZC  31 h132
M  ZZM   1 40
M  ZZI   1 224
M  ZZM   2 37
M  ZZI   2 124
M  ZZM   3 37
M  ZZI   3 124
M  ZZM   4 3
M  ZZI   4 121
M  ZZM   5 7
M  ZZI   5 81
M  ZZM   6 10
M  ZZI   6 192
M  ZZM   7 3
M  ZZI   7 121
M  ZZM   8 7
M  ZZI   8 81
M  ZZM   9 37
M  ZZI   9 124
M  ZZM  10 37
M  ZZI  10 125
M  ZZM  11 37
M  ZZI  11 125
M  ZZM  12 37
M  ZZI  12 125
M  ZZM  13 1
M  ZZI  13 113
M  ZZM  14 3
M  ZZI  14 121
M  ZZM  15 7
M  ZZI  15 81
M  ZZM  16 10
M  ZZI  16 191
M  ZZM  17 3
M  ZZI  17 121
M  ZZM  18 7
M  ZZI  18 81
M  ZZM  19 1
M  ZZI  19 112
M  ZZM  20 1
M  ZZI  20 112
M  ZZM  21 28
M  ZZI  21 11
M  ZZM  22 28
M  ZZI  22 11
M  ZZM  23 5
M  ZZI  23 1
M  ZZM  24 5
M  ZZI  24 1
M  ZZM  25 5
M  ZZI  25 1
M  ZZM  26 5
M  ZZI  26 1
M  ZZM  27 28
M  ZZI  27 11
M  ZZM  28 5
M  ZZI  28 1
M  ZZM  29 5
M  ZZI  29 1
M  ZZM  30 5
M  ZZI  30 1
M  ZZM  31 5
M  ZZI  31 1
M  END
> <IX>
1

> <NAME>
Cereblon_5E80_7.pdb

> <Score>
-21.633759

> <Natom>
31

> <Nflex>
1

> <Hbond>
-4.906949

> <Hphob>
-3.585311

> <VwInt>
-23.938542

> <Dsolv>
15.105953

> <SolEl>
6.224723

> <Eintl>
1.806234

> <RecConf>
ND

> <projPath>
Cereblon_maps/

> <NAME_>
Cereblon_5E80_7.pdb

$$$$
