Cereblon_6IQ5_1.pdb
  MOLSOFT 04032206283D

 29 31  0  0  1  0  0  0  0  0999 V2000
   79.0034   42.4893   42.6726 C   0  0  0  0  0  0  0  0  0  0  0  0
   78.1847   42.1951   41.5968 C   0  0  0  0  0  0  0  0  0  0  0  0
   77.2672   41.0769   41.4109 C   0  0  0  0  0  0  0  0  0  0  0  0
   77.0876   40.2161   42.2585 O   0  0  0  0  0  0  0  0  0  0  0  0
   76.7271   41.2193   40.1459 N   0  0  0  0  0  0  0  0  0  0  0  0
   77.2229   42.3468   39.5232 C   0  0  0  0  0  0  0  0  0  0  0  0
   76.9869   42.7651   38.3971 O   0  0  0  0  0  0  0  0  0  0  0  0
   78.1577   42.9583   40.4683 C   0  0  0  0  0  0  0  0  0  0  0  0
   78.9564   44.0746   40.3264 C   0  0  0  0  0  0  0  0  0  0  0  0
   79.7986   44.3839   41.3887 C   0  0  0  0  0  0  0  0  0  0  0  0
   79.8222   43.6053   42.5464 C   0  0  0  0  0  0  0  0  0  0  0  0
   75.7185   40.3646   39.5132 C   0  0  2  0  0  0  0  0  0  0  0  0
   74.3386   40.9338   39.8023 C   0  0  0  0  0  0  0  0  0  0  0  0
   74.1518   42.1202   40.0157 O   0  0  0  0  0  0  0  0  0  0  0  0
   73.2883   40.0520   39.7263 N   0  0  0  0  0  0  0  0  0  0  0  0
   73.3263   38.7061   39.4561 C   0  0  0  0  0  0  0  0  0  0  0  0
   72.3104   38.0328   39.4003 O   0  0  0  0  0  0  0  0  0  0  0  0
   74.6906   38.1240   39.1788 C   0  0  0  0  0  0  0  0  0  0  0  0
   75.7731   38.8941   39.9146 C   0  0  0  0  0  0  0  0  0  0  0  0
   79.0148   41.8738   43.5682 H   0  0  0  0  0  0  0  0  0  0  0  0
   78.9250   44.6772   39.4265 H   0  0  0  0  0  0  0  0  0  0  0  0
   80.4464   45.2504   41.3200 H   0  0  0  0  0  0  0  0  0  0  0  0
   80.4886   43.8745   43.3608 H   0  0  0  0  0  0  0  0  0  0  0  0
   75.8580   40.4527   38.4338 H   0  0  0  0  0  0  0  0  0  0  0  0
   72.3699   40.4460   39.8889 H   0  0  0  0  0  0  0  0  0  0  0  0
   74.6981   37.0781   39.5027 H   0  0  0  0  0  0  0  0  0  0  0  0
   74.8514   38.1444   38.0964 H   0  0  0  0  0  0  0  0  0  0  0  0
   76.7585   38.4728   39.6908 H   0  0  0  0  0  0  0  0  0  0  0  0
   75.6112   38.7742   40.9895 H   0  0  0  0  0  0  0  0  0  0  0  0
  1 20  1  0  0  0  0
  1  2  1  0  0  0  0
  1 11  2  0  0  0  0
  2  3  1  0  0  0  0
  2  8  2  0  0  0  0
  3  4  2  0  0  0  0
  3  5  1  0  0  0  0
  5  6  1  0  0  0  0
 12  5  1  0  0  0  0
  6  7  2  0  0  0  0
  6  8  1  0  0  0  0
  8  9  1  0  0  0  0
  9 21  1  0  0  0  0
  9 10  2  0  0  0  0
 10 22  1  0  0  0  0
 10 11  1  0  0  0  0
 11 23  1  0  0  0  0
 12 24  1  0  0  0  0
 12 13  1  0  0  0  0
 12 19  1  0  0  0  0
 13 14  2  0  0  0  0
 13 15  1  0  0  0  0
 15 25  1  0  0  0  0
 15 16  1  0  0  0  0
 16 17  2  0  0  0  0
 16 18  1  0  0  0  0
 18 26  1  0  0  0  0
 18 27  1  0  0  0  0
 18 19  1  0  0  0  0
 19 28  1  0  0  0  0
 19 29  1  0  0  0  0
M  ZZC   1 c1
M  ZZC   2 c2
M  ZZC   3 c3
M  ZZC   4 o1
M  ZZC   5 n1
M  ZZC   6 c4
M  ZZC   7 o2
M  ZZC   8 c5
M  ZZC   9 c6
M  ZZC  10 c7
M  ZZC  11 c8
M  ZZC  12 c9
M  ZZC  13 c10
M  ZZC  14 o3
M  ZZC  15 n2
M  ZZC  16 c11
M  ZZC  17 o4
M  ZZC  18 c12
M  ZZC  19 c13
M  ZZC  20 h11
M  ZZC  21 h61
M  ZZC  22 h71
M  ZZC  23 h81
M  ZZC  24 h91
M  ZZC  25 h21
M  ZZC  26 h121
M  ZZC  27 h122
M  ZZC  28 h131
M  ZZC  29 h132
M  ZZM   1 37
M  ZZI   1 125
M  ZZM   2 37
M  ZZI   2 124
M  ZZM   3 3
M  ZZI   3 121
M  ZZM   4 7
M  ZZI   4 81
M  ZZM   5 10
M  ZZI   5 192
M  ZZM   6 3
M  ZZI   6 121
M  ZZM   7 7
M  ZZI   7 81
M  ZZM   8 37
M  ZZI   8 124
M  ZZM   9 37
M  ZZI   9 125
M  ZZM  10 37
M  ZZI  10 125
M  ZZM  11 37
M  ZZI  11 125
M  ZZM  12 1
M  ZZI  12 113
M  ZZM  13 3
M  ZZI  13 121
M  ZZM  14 7
M  ZZI  14 81
M  ZZM  15 10
M  ZZI  15 191
M  ZZM  16 3
M  ZZI  16 121
M  ZZM  17 7
M  ZZI  17 81
M  ZZM  18 1
M  ZZI  18 112
M  ZZM  19 1
M  ZZI  19 112
M  ZZM  20 5
M  ZZI  20 1
M  ZZM  21 5
M  ZZI  21 1
M  ZZM  22 5
M  ZZI  22 1
M  ZZM  23 5
M  ZZI  23 1
M  ZZM  24 5
M  ZZI  24 1
M  ZZM  25 28
M  ZZI  25 11
M  ZZM  26 5
M  ZZI  26 1
M  ZZM  27 5
M  ZZI  27 1
M  ZZM  28 5
M  ZZI  28 1
M  ZZM  29 5
M  ZZI  29 1
M  END
> <IX>
1

> <NAME>
Cereblon_6IQ5_1.pdb

> <Score>
-19.363588

> <Natom>
29

> <Nflex>
1

> <Hbond>
-3.369228

> <Hphob>
-3.527749

> <VwInt>
-22.701444

> <Dsolv>
12.035242

> <SolEl>
5.618426

> <Eintl>
1.485005

> <RecConf>
ND

> <projPath>
Cereblon_maps/

> <NAME_>
Cereblon_6IQ5_1.pdb

$$$$
