Cereblon_3LQ5_3.pdb
  MOLSOFT 04032206223D

 31 33  0  0  1  0  0  0  0  0999 V2000
   78.8138   41.6781   43.8199 N   0  0  0  0  0  0  0  0  0  0  0  0
   78.9076   42.4226   42.6334 C   0  0  0  0  0  0  0  0  0  0  0  0
   78.1015   42.1573   41.5389 C   0  0  0  0  0  0  0  0  0  0  0  0
   77.1803   41.0472   41.3320 C   0  0  0  0  0  0  0  0  0  0  0  0
   76.9985   40.1647   42.1576 O   0  0  0  0  0  0  0  0  0  0  0  0
   76.6468   41.2109   40.0693 N   0  0  0  0  0  0  0  0  0  0  0  0
   77.1677   42.3318   39.4553 C   0  0  0  0  0  0  0  0  0  0  0  0
   76.9558   42.7547   38.3262 O   0  0  0  0  0  0  0  0  0  0  0  0
   78.0992   42.9269   40.4151 C   0  0  0  0  0  0  0  0  0  0  0  0
   78.9093   44.0369   40.2950 C   0  0  0  0  0  0  0  0  0  0  0  0
   79.7244   44.3374   41.3803 C   0  0  0  0  0  0  0  0  0  0  0  0
   79.7113   43.5546   42.5362 C   0  0  0  0  0  0  0  0  0  0  0  0
   75.6269   40.3749   39.4322 C   0  0  2  0  0  0  0  0  0  0  0  0
   74.2560   40.9543   39.7358 C   0  0  0  0  0  0  0  0  0  0  0  0
   74.0851   42.1345   39.9923 O   0  0  0  0  0  0  0  0  0  0  0  0
   73.1951   40.0894   39.6223 N   0  0  0  0  0  0  0  0  0  0  0  0
   73.2195   38.7510   39.3120 C   0  0  0  0  0  0  0  0  0  0  0  0
   72.1942   38.0981   39.2052 O   0  0  0  0  0  0  0  0  0  0  0  0
   74.5818   38.1514   39.0593 C   0  0  0  0  0  0  0  0  0  0  0  0
   75.6594   38.9006   39.8225 C   0  0  0  0  0  0  0  0  0  0  0  0
   79.5550   41.7605   44.5123 H   0  0  0  0  0  0  0  0  0  0  0  0
   78.3251   40.7825   43.7768 H   0  0  0  0  0  0  0  0  0  0  0  0
   78.9012   44.6466   39.3987 H   0  0  0  0  0  0  0  0  0  0  0  0
   80.3713   45.2067   41.3370 H   0  0  0  0  0  0  0  0  0  0  0  0
   80.3415   43.8380   43.3736 H   0  0  0  0  0  0  0  0  0  0  0  0
   75.7630   40.4739   38.3536 H   0  0  0  0  0  0  0  0  0  0  0  0
   72.2795   40.4912   39.7818 H   0  0  0  0  0  0  0  0  0  0  0  0
   74.5666   37.1038   39.3765 H   0  0  0  0  0  0  0  0  0  0  0  0
   74.7691   38.1762   37.9808 H   0  0  0  0  0  0  0  0  0  0  0  0
   75.4728   38.7740   40.8929 H   0  0  0  0  0  0  0  0  0  0  0  0
   76.6442   38.4689   39.6160 H   0  0  0  0  0  0  0  0  0  0  0  0
  1  2  1  0  0  0  0
  1 21  1  0  0  0  0
  1 22  1  0  0  0  0
  2  3  1  0  0  0  0
  2 12  2  0  0  0  0
  3  9  2  0  0  0  0
  3  4  1  0  0  0  0
  4  5  2  0  0  0  0
  4  6  1  0  0  0  0
  6  7  1  0  0  0  0
 13  6  1  0  0  0  0
  7  8  2  0  0  0  0
  7  9  1  0  0  0  0
  9 10  1  0  0  0  0
 10 23  1  0  0  0  0
 10 11  2  0  0  0  0
 11 12  1  0  0  0  0
 11 24  1  0  0  0  0
 12 25  1  0  0  0  0
 13 26  1  0  0  0  0
 13 14  1  0  0  0  0
 13 20  1  0  0  0  0
 14 15  2  0  0  0  0
 14 16  1  0  0  0  0
 16 27  1  0  0  0  0
 16 17  1  0  0  0  0
 17 18  2  0  0  0  0
 17 19  1  0  0  0  0
 19 28  1  0  0  0  0
 19 29  1  0  0  0  0
 19 20  1  0  0  0  0
 20 30  1  0  0  0  0
 20 31  1  0  0  0  0
M  ZZC   1 n1
M  ZZC   2 c1
M  ZZC   3 c2
M  ZZC   4 c3
M  ZZC   5 o1
M  ZZC   6 n2
M  ZZC   7 c4
M  ZZC   8 o2
M  ZZC   9 c5
M  ZZC  10 c6
M  ZZC  11 c7
M  ZZC  12 c8
M  ZZC  13 c9
M  ZZC  14 c10
M  ZZC  15 o3
M  ZZC  16 n3
M  ZZC  17 c11
M  ZZC  18 o4
M  ZZC  19 c12
M  ZZC  20 c13
M  ZZC  21 h11
M  ZZC  22 h12
M  ZZC  23 h61
M  ZZC  24 h71
M  ZZC  25 h81
M  ZZC  26 h91
M  ZZC  27 h31
M  ZZC  28 h121
M  ZZC  29 h122
M  ZZC  30 h131
M  ZZC  31 h132
M  ZZM   1 40
M  ZZI   1 224
M  ZZM   2 37
M  ZZI   2 124
M  ZZM   3 37
M  ZZI   3 124
M  ZZM   4 3
M  ZZI   4 121
M  ZZM   5 7
M  ZZI   5 81
M  ZZM   6 10
M  ZZI   6 192
M  ZZM   7 3
M  ZZI   7 121
M  ZZM   8 7
M  ZZI   8 81
M  ZZM   9 37
M  ZZI   9 124
M  ZZM  10 37
M  ZZI  10 125
M  ZZM  11 37
M  ZZI  11 125
M  ZZM  12 37
M  ZZI  12 125
M  ZZM  13 1
M  ZZI  13 113
M  ZZM  14 3
M  ZZI  14 121
M  ZZM  15 7
M  ZZI  15 81
M  ZZM  16 10
M  ZZI  16 191
M  ZZM  17 3
M  ZZI  17 121
M  ZZM  18 7
M  ZZI  18 81
M  ZZM  19 1
M  ZZI  19 112
M  ZZM  20 1
M  ZZI  20 112
M  ZZM  21 28
M  ZZI  21 11
M  ZZM  22 28
M  ZZI  22 11
M  ZZM  23 5
M  ZZI  23 1
M  ZZM  24 5
M  ZZI  24 1
M  ZZM  25 5
M  ZZI  25 1
M  ZZM  26 5
M  ZZI  26 1
M  ZZM  27 28
M  ZZI  27 11
M  ZZM  28 5
M  ZZI  28 1
M  ZZM  29 5
M  ZZI  29 1
M  ZZM  30 5
M  ZZI  30 1
M  ZZM  31 5
M  ZZI  31 1
M  END
> <IX>
1

> <NAME>
Cereblon_3LQ5_3.pdb

> <Score>
-18.047697

> <Natom>
31

> <Nflex>
1

> <Hbond>
-3.700492

> <Hphob>
-3.552001

> <VwInt>
-24.236328

> <Dsolv>
15.195264

> <SolEl>
7.455866

> <Eintl>
1.688995

> <RecConf>
ND

> <projPath>
Cereblon_maps/

> <NAME_>
Cereblon_3LQ5_3.pdb

$$$$
