Cereblon_4IPF_12.pdb
  MOLSOFT 04032206223D

 30 32  0  0  1  0  0  0  0  0999 V2000
   75.6647   37.9095   39.7389 C   0  0  0  0  0  0  0  0  0  0  0  0
   74.9765   39.0130   39.2629 C   0  0  0  0  0  0  0  0  0  0  0  0
   75.2958   40.2626   39.7132 C   0  0  0  0  0  0  0  0  0  0  0  0
   74.4152   41.2273   39.0528 C   0  0  0  0  0  0  0  0  0  0  0  0
   74.4237   42.4215   39.3098 O   0  0  0  0  0  0  0  0  0  0  0  0
   73.6385   40.5117   38.1537 N   0  0  0  0  0  0  0  0  0  0  0  0
   72.6046   41.0399   37.2480 C   0  0  1  0  0  0  0  0  0  0  0  0
   71.2806   41.2561   37.9802 C   0  0  0  0  0  0  0  0  0  0  0  0
   70.9206   40.5765   38.9306 O   0  0  0  0  0  0  0  0  0  0  0  0
   70.4419   42.2069   37.4448 N   0  0  0  0  0  0  0  0  0  0  0  0
   70.6522   43.0410   36.3792 C   0  0  0  0  0  0  0  0  0  0  0  0
   69.8469   43.9114   36.0858 O   0  0  0  0  0  0  0  0  0  0  0  0
   71.9150   42.7878   35.5966 C   0  0  0  0  0  0  0  0  0  0  0  0
   73.0329   42.3060   36.5068 C   0  0  0  0  0  0  0  0  0  0  0  0
   73.8694   39.0817   38.2726 C   0  0  0  0  0  0  0  0  0  0  0  0
   76.3010   40.5035   40.6322 C   0  0  0  0  0  0  0  0  0  0  0  0
   76.9948   39.4022   41.1108 C   0  0  0  0  0  0  0  0  0  0  0  0
   76.6784   38.1211   40.6665 C   0  0  0  0  0  0  0  0  0  0  0  0
   75.4287   36.9069   39.3960 H   0  0  0  0  0  0  0  0  0  0  0  0
   72.4160   40.2606   36.5003 H   0  0  0  0  0  0  0  0  0  0  0  0
   69.5687   42.3516   37.9305 H   0  0  0  0  0  0  0  0  0  0  0  0
   71.6976   42.0547   34.8124 H   0  0  0  0  0  0  0  0  0  0  0  0
   72.2094   43.7230   35.1161 H   0  0  0  0  0  0  0  0  0  0  0  0
   73.9363   42.1137   35.9190 H   0  0  0  0  0  0  0  0  0  0  0  0
   73.2839   43.1058   37.2089 H   0  0  0  0  0  0  0  0  0  0  0  0
   74.1587   38.6701   37.2999 H   0  0  0  0  0  0  0  0  0  0  0  0
   72.9633   38.5948   38.6489 H   0  0  0  0  0  0  0  0  0  0  0  0
   76.5472   41.5088   40.9586 H   0  0  0  0  0  0  0  0  0  0  0  0
   77.7918   39.5427   41.8348 H   0  0  0  0  0  0  0  0  0  0  0  0
   77.2356   37.2725   41.0504 H   0  0  0  0  0  0  0  0  0  0  0  0
  1 19  1  0  0  0  0
  1 18  2  0  0  0  0
  1  2  1  0  0  0  0
  2  3  2  0  0  0  0
  2 15  1  0  0  0  0
  3 16  1  0  0  0  0
  3  4  1  0  0  0  0
  4  6  1  0  0  0  0
  4  5  2  0  0  0  0
  6 15  1  0  0  0  0
  7  6  1  0  0  0  0
  7 20  1  0  0  0  0
  7  8  1  0  0  0  0
  7 14  1  0  0  0  0
  8  9  2  0  0  0  0
  8 10  1  0  0  0  0
 10 21  1  0  0  0  0
 10 11  1  0  0  0  0
 11 12  2  0  0  0  0
 11 13  1  0  0  0  0
 13 22  1  0  0  0  0
 13 23  1  0  0  0  0
 13 14  1  0  0  0  0
 14 24  1  0  0  0  0
 14 25  1  0  0  0  0
 15 26  1  0  0  0  0
 15 27  1  0  0  0  0
 16 17  2  0  0  0  0
 16 28  1  0  0  0  0
 17 18  1  0  0  0  0
 17 29  1  0  0  0  0
 18 30  1  0  0  0  0
M  ZZC   1 c1
M  ZZC   2 c2
M  ZZC   3 c3
M  ZZC   4 c4
M  ZZC   5 o1
M  ZZC   6 n1
M  ZZC   7 c5
M  ZZC   8 c6
M  ZZC   9 o2
M  ZZC  10 n2
M  ZZC  11 c7
M  ZZC  12 o3
M  ZZC  13 c8
M  ZZC  14 c9
M  ZZC  15 c10
M  ZZC  16 c11
M  ZZC  17 c12
M  ZZC  18 c13
M  ZZC  19 h11
M  ZZC  20 h51
M  ZZC  21 h21
M  ZZC  22 h81
M  ZZC  23 h82
M  ZZC  24 h91
M  ZZC  25 h92
M  ZZC  26 h101
M  ZZC  27 h102
M  ZZC  28 h111
M  ZZC  29 h121
M  ZZC  30 h131
M  ZZM   1 37
M  ZZI   1 125
M  ZZM   2 37
M  ZZI   2 124
M  ZZM   3 37
M  ZZI   3 124
M  ZZM   4 3
M  ZZI   4 121
M  ZZM   5 7
M  ZZI   5 81
M  ZZM   6 10
M  ZZI   6 192
M  ZZM   7 1
M  ZZI   7 113
M  ZZM   8 3
M  ZZI   8 121
M  ZZM   9 7
M  ZZI   9 81
M  ZZM  10 10
M  ZZI  10 191
M  ZZM  11 3
M  ZZI  11 121
M  ZZM  12 7
M  ZZI  12 81
M  ZZM  13 1
M  ZZI  13 112
M  ZZM  14 1
M  ZZI  14 112
M  ZZM  15 1
M  ZZI  15 112
M  ZZM  16 37
M  ZZI  16 125
M  ZZM  17 37
M  ZZI  17 125
M  ZZM  18 37
M  ZZI  18 125
M  ZZM  19 5
M  ZZI  19 1
M  ZZM  20 5
M  ZZI  20 1
M  ZZM  21 28
M  ZZI  21 11
M  ZZM  22 5
M  ZZI  22 1
M  ZZM  23 5
M  ZZI  23 1
M  ZZM  24 5
M  ZZI  24 1
M  ZZM  25 5
M  ZZI  25 1
M  ZZM  26 5
M  ZZI  26 1
M  ZZM  27 5
M  ZZI  27 1
M  ZZM  28 5
M  ZZI  28 1
M  ZZM  29 5
M  ZZI  29 1
M  ZZM  30 5
M  ZZI  30 1
M  END
> <IX>
1

> <NAME>
Cereblon_4IPF_12.pdb

> <Score>
-20.901526

> <Natom>
30

> <Nflex>
1

> <Hbond>
-4.583971

> <Hphob>
-3.606002

> <VwInt>
-22.04347

> <Dsolv>
13.282932

> <SolEl>
5.371293

> <Eintl>
1.746933

> <RecConf>
ND

> <projPath>
Cereblon_maps/

> <NAME_>
Cereblon_4IPF_12.pdb

$$$$
