Cereblon_3HLL_6.pdb
  MOLSOFT 04032206213D

 31 33  0  0  1  0  0  0  0  0999 V2000
   78.8195   41.6790   43.8166 N   0  0  0  0  0  0  0  0  0  0  0  0
   78.9070   42.4288   42.6334 C   0  0  0  0  0  0  0  0  0  0  0  0
   78.1026   42.1624   41.5383 C   0  0  0  0  0  0  0  0  0  0  0  0
   77.1789   41.0537   41.3328 C   0  0  0  0  0  0  0  0  0  0  0  0
   76.9948   40.1744   42.1615 O   0  0  0  0  0  0  0  0  0  0  0  0
   76.6482   41.2140   40.0683 N   0  0  0  0  0  0  0  0  0  0  0  0
   77.1687   42.3350   39.4542 C   0  0  0  0  0  0  0  0  0  0  0  0
   76.9551   42.7581   38.3255 O   0  0  0  0  0  0  0  0  0  0  0  0
   78.0999   42.9307   40.4136 C   0  0  0  0  0  0  0  0  0  0  0  0
   78.9098   44.0415   40.2943 C   0  0  0  0  0  0  0  0  0  0  0  0
   79.7255   44.3418   41.3790 C   0  0  0  0  0  0  0  0  0  0  0  0
   79.7117   43.5600   42.5359 C   0  0  0  0  0  0  0  0  0  0  0  0
   75.6297   40.3769   39.4308 C   0  0  2  0  0  0  0  0  0  0  0  0
   74.2579   40.9543   39.7362 C   0  0  0  0  0  0  0  0  0  0  0  0
   74.0864   42.1352   39.9893 O   0  0  0  0  0  0  0  0  0  0  0  0
   73.1978   40.0873   39.6291 N   0  0  0  0  0  0  0  0  0  0  0  0
   73.2234   38.7484   39.3214 C   0  0  0  0  0  0  0  0  0  0  0  0
   72.1996   38.0921   39.2223 O   0  0  0  0  0  0  0  0  0  0  0  0
   74.5862   38.1520   39.0613 C   0  0  0  0  0  0  0  0  0  0  0  0
   75.6658   38.9024   39.8205 C   0  0  0  0  0  0  0  0  0  0  0  0
   79.5569   41.7600   44.5133 H   0  0  0  0  0  0  0  0  0  0  0  0
   78.3027   40.7987   43.7853 H   0  0  0  0  0  0  0  0  0  0  0  0
   78.9005   44.6497   39.3976 H   0  0  0  0  0  0  0  0  0  0  0  0
   80.3747   45.2091   41.3344 H   0  0  0  0  0  0  0  0  0  0  0  0
   80.3452   43.8404   43.3720 H   0  0  0  0  0  0  0  0  0  0  0  0
   75.7627   40.4777   38.3523 H   0  0  0  0  0  0  0  0  0  0  0  0
   72.2822   40.4881   39.7904 H   0  0  0  0  0  0  0  0  0  0  0  0
   74.5742   37.1043   39.3781 H   0  0  0  0  0  0  0  0  0  0  0  0
   74.7684   38.1776   37.9824 H   0  0  0  0  0  0  0  0  0  0  0  0
   75.4847   38.7745   40.8917 H   0  0  0  0  0  0  0  0  0  0  0  0
   76.6506   38.4725   39.6112 H   0  0  0  0  0  0  0  0  0  0  0  0
  1  2  1  0  0  0  0
  1 21  1  0  0  0  0
  1 22  1  0  0  0  0
  2  3  1  0  0  0  0
  2 12  2  0  0  0  0
  3  9  2  0  0  0  0
  3  4  1  0  0  0  0
  4  5  2  0  0  0  0
  4  6  1  0  0  0  0
  6  7  1  0  0  0  0
 13  6  1  0  0  0  0
  7  8  2  0  0  0  0
  7  9  1  0  0  0  0
  9 10  1  0  0  0  0
 10 23  1  0  0  0  0
 10 11  2  0  0  0  0
 11 12  1  0  0  0  0
 11 24  1  0  0  0  0
 12 25  1  0  0  0  0
 13 26  1  0  0  0  0
 13 14  1  0  0  0  0
 13 20  1  0  0  0  0
 14 15  2  0  0  0  0
 14 16  1  0  0  0  0
 16 27  1  0  0  0  0
 16 17  1  0  0  0  0
 17 18  2  0  0  0  0
 17 19  1  0  0  0  0
 19 28  1  0  0  0  0
 19 29  1  0  0  0  0
 19 20  1  0  0  0  0
 20 30  1  0  0  0  0
 20 31  1  0  0  0  0
M  ZZC   1 n1
M  ZZC   2 c1
M  ZZC   3 c2
M  ZZC   4 c3
M  ZZC   5 o1
M  ZZC   6 n2
M  ZZC   7 c4
M  ZZC   8 o2
M  ZZC   9 c5
M  ZZC  10 c6
M  ZZC  11 c7
M  ZZC  12 c8
M  ZZC  13 c9
M  ZZC  14 c10
M  ZZC  15 o3
M  ZZC  16 n3
M  ZZC  17 c11
M  ZZC  18 o4
M  ZZC  19 c12
M  ZZC  20 c13
M  ZZC  21 h11
M  ZZC  22 h12
M  ZZC  23 h61
M  ZZC  24 h71
M  ZZC  25 h81
M  ZZC  26 h91
M  ZZC  27 h31
M  ZZC  28 h121
M  ZZC  29 h122
M  ZZC  30 h131
M  ZZC  31 h132
M  ZZM   1 40
M  ZZI   1 224
M  ZZM   2 37
M  ZZI   2 124
M  ZZM   3 37
M  ZZI   3 124
M  ZZM   4 3
M  ZZI   4 121
M  ZZM   5 7
M  ZZI   5 81
M  ZZM   6 10
M  ZZI   6 192
M  ZZM   7 3
M  ZZI   7 121
M  ZZM   8 7
M  ZZI   8 81
M  ZZM   9 37
M  ZZI   9 124
M  ZZM  10 37
M  ZZI  10 125
M  ZZM  11 37
M  ZZI  11 125
M  ZZM  12 37
M  ZZI  12 125
M  ZZM  13 1
M  ZZI  13 113
M  ZZM  14 3
M  ZZI  14 121
M  ZZM  15 7
M  ZZI  15 81
M  ZZM  16 10
M  ZZI  16 191
M  ZZM  17 3
M  ZZI  17 121
M  ZZM  18 7
M  ZZI  18 81
M  ZZM  19 1
M  ZZI  19 112
M  ZZM  20 1
M  ZZI  20 112
M  ZZM  21 28
M  ZZI  21 11
M  ZZM  22 28
M  ZZI  22 11
M  ZZM  23 5
M  ZZI  23 1
M  ZZM  24 5
M  ZZI  24 1
M  ZZM  25 5
M  ZZI  25 1
M  ZZM  26 5
M  ZZI  26 1
M  ZZM  27 28
M  ZZI  27 11
M  ZZM  28 5
M  ZZI  28 1
M  ZZM  29 5
M  ZZI  29 1
M  ZZM  30 5
M  ZZI  30 1
M  ZZM  31 5
M  ZZI  31 1
M  END
> <IX>
1

> <NAME>
Cereblon_3HLL_6.pdb

> <Score>
-18.489228

> <Natom>
31

> <Nflex>
1

> <Hbond>
-3.698872

> <Hphob>
-3.545362

> <VwInt>
-24.219101

> <Dsolv>
15.154607

> <SolEl>
6.818234

> <Eintl>
1.662371

> <RecConf>
ND

> <projPath>
Cereblon_maps/

> <NAME_>
Cereblon_3HLL_6.pdb

$$$$
