Cereblon_6W8L_7.pdb
  MOLSOFT 04032206293D

 30 32  0  0  1  0  0  0  0  0999 V2000
   74.9470   37.6925   39.0511 C   0  0  0  0  0  0  0  0  0  0  0  0
   74.4861   38.9695   38.7796 C   0  0  0  0  0  0  0  0  0  0  0  0
   75.0049   40.0405   39.4544 C   0  0  0  0  0  0  0  0  0  0  0  0
   74.3250   41.2484   38.9894 C   0  0  0  0  0  0  0  0  0  0  0  0
   74.5327   42.3659   39.4396 O   0  0  0  0  0  0  0  0  0  0  0  0
   73.4501   40.8533   37.9935 N   0  0  0  0  0  0  0  0  0  0  0  0
   72.5642   41.7698   37.2663 C   0  0  2  0  0  0  0  0  0  0  0  0
   71.0805   41.5595   37.5700 C   0  0  0  0  0  0  0  0  0  0  0  0
   70.6467   40.9057   38.5069 O   0  0  0  0  0  0  0  0  0  0  0  0
   70.2188   42.1983   36.7109 N   0  0  0  0  0  0  0  0  0  0  0  0
   70.5158   42.8448   35.5375 C   0  0  0  0  0  0  0  0  0  0  0  0
   69.6473   43.3866   34.8738 O   0  0  0  0  0  0  0  0  0  0  0  0
   71.9735   42.8802   35.1434 C   0  0  0  0  0  0  0  0  0  0  0  0
   72.7601   41.7341   35.7602 C   0  0  0  0  0  0  0  0  0  0  0  0
   73.4528   39.4125   37.8038 C   0  0  0  0  0  0  0  0  0  0  0  0
   76.0065   39.9297   40.4011 C   0  0  0  0  0  0  0  0  0  0  0  0
   76.4800   38.6534   40.6677 C   0  0  0  0  0  0  0  0  0  0  0  0
   75.9502   37.5496   40.0025 C   0  0  0  0  0  0  0  0  0  0  0  0
   74.5469   36.8285   38.5298 H   0  0  0  0  0  0  0  0  0  0  0  0
   72.8228   42.7757   37.5987 H   0  0  0  0  0  0  0  0  0  0  0  0
   69.2330   42.1411   36.9375 H   0  0  0  0  0  0  0  0  0  0  0  0
   72.0404   42.8271   34.0529 H   0  0  0  0  0  0  0  0  0  0  0  0
   72.3795   43.8434   35.4707 H   0  0  0  0  0  0  0  0  0  0  0  0
   72.4210   40.7774   35.3451 H   0  0  0  0  0  0  0  0  0  0  0  0
   73.8217   41.8372   35.5135 H   0  0  0  0  0  0  0  0  0  0  0  0
   73.7388   39.1746   36.7738 H   0  0  0  0  0  0  0  0  0  0  0  0
   72.4689   38.9987   38.0456 H   0  0  0  0  0  0  0  0  0  0  0  0
   76.4061   40.8007   40.9119 H   0  0  0  0  0  0  0  0  0  0  0  0
   77.2682   38.5163   41.4016 H   0  0  0  0  0  0  0  0  0  0  0  0
   76.3330   36.5592   40.2274 H   0  0  0  0  0  0  0  0  0  0  0  0
  1 19  1  0  0  0  0
  1 18  2  0  0  0  0
  1  2  1  0  0  0  0
  2  3  2  0  0  0  0
  2 15  1  0  0  0  0
  3 16  1  0  0  0  0
  3  4  1  0  0  0  0
  4  6  1  0  0  0  0
  4  5  2  0  0  0  0
  6 15  1  0  0  0  0
  7  6  1  0  0  0  0
  7 20  1  0  0  0  0
  7  8  1  0  0  0  0
  7 14  1  0  0  0  0
  8  9  2  0  0  0  0
  8 10  1  0  0  0  0
 10 21  1  0  0  0  0
 10 11  1  0  0  0  0
 11 12  2  0  0  0  0
 11 13  1  0  0  0  0
 13 22  1  0  0  0  0
 13 23  1  0  0  0  0
 13 14  1  0  0  0  0
 14 24  1  0  0  0  0
 14 25  1  0  0  0  0
 15 26  1  0  0  0  0
 15 27  1  0  0  0  0
 16 17  2  0  0  0  0
 16 28  1  0  0  0  0
 17 18  1  0  0  0  0
 17 29  1  0  0  0  0
 18 30  1  0  0  0  0
M  ZZC   1 c1
M  ZZC   2 c2
M  ZZC   3 c3
M  ZZC   4 c4
M  ZZC   5 o1
M  ZZC   6 n1
M  ZZC   7 c5
M  ZZC   8 c6
M  ZZC   9 o2
M  ZZC  10 n2
M  ZZC  11 c7
M  ZZC  12 o3
M  ZZC  13 c8
M  ZZC  14 c9
M  ZZC  15 c10
M  ZZC  16 c11
M  ZZC  17 c12
M  ZZC  18 c13
M  ZZC  19 h11
M  ZZC  20 h51
M  ZZC  21 h21
M  ZZC  22 h81
M  ZZC  23 h82
M  ZZC  24 h91
M  ZZC  25 h92
M  ZZC  26 h101
M  ZZC  27 h102
M  ZZC  28 h111
M  ZZC  29 h121
M  ZZC  30 h131
M  ZZM   1 37
M  ZZI   1 125
M  ZZM   2 37
M  ZZI   2 124
M  ZZM   3 37
M  ZZI   3 124
M  ZZM   4 3
M  ZZI   4 121
M  ZZM   5 7
M  ZZI   5 81
M  ZZM   6 10
M  ZZI   6 192
M  ZZM   7 1
M  ZZI   7 113
M  ZZM   8 3
M  ZZI   8 121
M  ZZM   9 7
M  ZZI   9 81
M  ZZM  10 10
M  ZZI  10 191
M  ZZM  11 3
M  ZZI  11 121
M  ZZM  12 7
M  ZZI  12 81
M  ZZM  13 1
M  ZZI  13 112
M  ZZM  14 1
M  ZZI  14 112
M  ZZM  15 1
M  ZZI  15 112
M  ZZM  16 37
M  ZZI  16 125
M  ZZM  17 37
M  ZZI  17 125
M  ZZM  18 37
M  ZZI  18 125
M  ZZM  19 5
M  ZZI  19 1
M  ZZM  20 5
M  ZZI  20 1
M  ZZM  21 28
M  ZZI  21 11
M  ZZM  22 5
M  ZZI  22 1
M  ZZM  23 5
M  ZZI  23 1
M  ZZM  24 5
M  ZZI  24 1
M  ZZM  25 5
M  ZZI  25 1
M  ZZM  26 5
M  ZZI  26 1
M  ZZM  27 5
M  ZZI  27 1
M  ZZM  28 5
M  ZZI  28 1
M  ZZM  29 5
M  ZZI  29 1
M  ZZM  30 5
M  ZZI  30 1
M  END
> <IX>
1

> <NAME>
Cereblon_6W8L_7.pdb

> <Score>
-15.271681

> <Natom>
30

> <Nflex>
1

> <Hbond>
-3.819569

> <Hphob>
-3.513514

> <VwInt>
-19.348876

> <Dsolv>
12.898141

> <SolEl>
7.872124

> <Eintl>
1.042586

> <RecConf>
ND

> <projPath>
Cereblon_maps/

> <NAME_>
Cereblon_6W8L_7.pdb

$$$$
