Cereblon_4IPF_1.pdb
  MOLSOFT 04032206233D

 30 32  0  0  1  0  0  0  0  0999 V2000
   78.9640   42.3524   42.8077 C   0  0  0  0  0  0  0  0  0  0  0  0
   78.1567   42.0586   41.7211 C   0  0  0  0  0  0  0  0  0  0  0  0
   78.1636   42.8639   40.6129 C   0  0  0  0  0  0  0  0  0  0  0  0
   77.2334   42.3029   39.6260 C   0  0  0  0  0  0  0  0  0  0  0  0
   77.0148   42.7689   38.5151 O   0  0  0  0  0  0  0  0  0  0  0  0
   76.7087   41.1585   40.1949 N   0  0  0  0  0  0  0  0  0  0  0  0
   75.6938   40.3318   39.5371 C   0  0  2  0  0  0  0  0  0  0  0  0
   74.3111   40.9171   39.7966 C   0  0  0  0  0  0  0  0  0  0  0  0
   74.1242   42.1053   40.0028 O   0  0  0  0  0  0  0  0  0  0  0  0
   73.2552   40.0428   39.7118 N   0  0  0  0  0  0  0  0  0  0  0  0
   73.2855   38.6935   39.4604 C   0  0  0  0  0  0  0  0  0  0  0  0
   72.2653   38.0273   39.4014 O   0  0  0  0  0  0  0  0  0  0  0  0
   74.6482   38.0967   39.2099 C   0  0  0  0  0  0  0  0  0  0  0  0
   75.7313   38.8645   39.9465 C   0  0  0  0  0  0  0  0  0  0  0  0
   77.2320   40.9136   41.5292 C   0  0  0  0  0  0  0  0  0  0  0  0
   78.9688   43.9807   40.5040 C   0  0  0  0  0  0  0  0  0  0  0  0
   79.7909   44.2725   41.5837 C   0  0  0  0  0  0  0  0  0  0  0  0
   79.7874   43.4687   42.7216 C   0  0  0  0  0  0  0  0  0  0  0  0
   78.9645   41.7270   43.6958 H   0  0  0  0  0  0  0  0  0  0  0  0
   75.8580   40.4212   38.4610 H   0  0  0  0  0  0  0  0  0  0  0  0
   72.3383   40.4472   39.8558 H   0  0  0  0  0  0  0  0  0  0  0  0
   74.6415   37.0553   39.5469 H   0  0  0  0  0  0  0  0  0  0  0  0
   74.8247   38.1030   38.1296 H   0  0  0  0  0  0  0  0  0  0  0  0
   75.5760   38.7601   41.0251 H   0  0  0  0  0  0  0  0  0  0  0  0
   76.7128   38.4325   39.7247 H   0  0  0  0  0  0  0  0  0  0  0  0
   77.7736   39.9618   41.5426 H   0  0  0  0  0  0  0  0  0  0  0  0
   76.4228   40.9150   42.2624 H   0  0  0  0  0  0  0  0  0  0  0  0
   78.9566   44.5988   39.6136 H   0  0  0  0  0  0  0  0  0  0  0  0
   80.4382   45.1411   41.5439 H   0  0  0  0  0  0  0  0  0  0  0  0
   80.4380   43.7178   43.5548 H   0  0  0  0  0  0  0  0  0  0  0  0
  1 19  1  0  0  0  0
  1 18  2  0  0  0  0
  1  2  1  0  0  0  0
  2  3  2  0  0  0  0
  2 15  1  0  0  0  0
  3 16  1  0  0  0  0
  3  4  1  0  0  0  0
  4  6  1  0  0  0  0
  4  5  2  0  0  0  0
  6 15  1  0  0  0  0
  7  6  1  0  0  0  0
  7 20  1  0  0  0  0
  7  8  1  0  0  0  0
  7 14  1  0  0  0  0
  8  9  2  0  0  0  0
  8 10  1  0  0  0  0
 10 21  1  0  0  0  0
 10 11  1  0  0  0  0
 11 12  2  0  0  0  0
 11 13  1  0  0  0  0
 13 22  1  0  0  0  0
 13 23  1  0  0  0  0
 13 14  1  0  0  0  0
 14 24  1  0  0  0  0
 14 25  1  0  0  0  0
 15 26  1  0  0  0  0
 15 27  1  0  0  0  0
 16 17  2  0  0  0  0
 16 28  1  0  0  0  0
 17 18  1  0  0  0  0
 17 29  1  0  0  0  0
 18 30  1  0  0  0  0
M  ZZC   1 c1
M  ZZC   2 c2
M  ZZC   3 c3
M  ZZC   4 c4
M  ZZC   5 o1
M  ZZC   6 n1
M  ZZC   7 c5
M  ZZC   8 c6
M  ZZC   9 o2
M  ZZC  10 n2
M  ZZC  11 c7
M  ZZC  12 o3
M  ZZC  13 c8
M  ZZC  14 c9
M  ZZC  15 c10
M  ZZC  16 c11
M  ZZC  17 c12
M  ZZC  18 c13
M  ZZC  19 h11
M  ZZC  20 h51
M  ZZC  21 h21
M  ZZC  22 h81
M  ZZC  23 h82
M  ZZC  24 h91
M  ZZC  25 h92
M  ZZC  26 h101
M  ZZC  27 h102
M  ZZC  28 h111
M  ZZC  29 h121
M  ZZC  30 h131
M  ZZM   1 37
M  ZZI   1 125
M  ZZM   2 37
M  ZZI   2 124
M  ZZM   3 37
M  ZZI   3 124
M  ZZM   4 3
M  ZZI   4 121
M  ZZM   5 7
M  ZZI   5 81
M  ZZM   6 10
M  ZZI   6 192
M  ZZM   7 1
M  ZZI   7 113
M  ZZM   8 3
M  ZZI   8 121
M  ZZM   9 7
M  ZZI   9 81
M  ZZM  10 10
M  ZZI  10 191
M  ZZM  11 3
M  ZZI  11 121
M  ZZM  12 7
M  ZZI  12 81
M  ZZM  13 1
M  ZZI  13 112
M  ZZM  14 1
M  ZZI  14 112
M  ZZM  15 1
M  ZZI  15 112
M  ZZM  16 37
M  ZZI  16 125
M  ZZM  17 37
M  ZZI  17 125
M  ZZM  18 37
M  ZZI  18 125
M  ZZM  19 5
M  ZZI  19 1
M  ZZM  20 5
M  ZZI  20 1
M  ZZM  21 28
M  ZZI  21 11
M  ZZM  22 5
M  ZZI  22 1
M  ZZM  23 5
M  ZZI  23 1
M  ZZM  24 5
M  ZZI  24 1
M  ZZM  25 5
M  ZZI  25 1
M  ZZM  26 5
M  ZZI  26 1
M  ZZM  27 5
M  ZZI  27 1
M  ZZM  28 5
M  ZZI  28 1
M  ZZM  29 5
M  ZZI  29 1
M  ZZM  30 5
M  ZZI  30 1
M  END
> <IX>
1

> <NAME>
Cereblon_4IPF_1.pdb

> <Score>
-18.716204

> <Natom>
30

> <Nflex>
1

> <Hbond>
-3.216586

> <Hphob>
-3.858108

> <VwInt>
-21.099939

> <Dsolv>
10.867007

> <SolEl>
5.651357

> <Eintl>
1.044132

> <RecConf>
ND

> <projPath>
Cereblon_maps/

> <NAME_>
Cereblon_4IPF_1.pdb

$$$$
