Cereblon_5VBP_1.pdb
  MOLSOFT 04032206283D

 30 32  0  0  0  0  0  0  0  0999 V2000
   77.8506   40.9330   43.8725 N   0  0  0  0  0  0  0  0  0  0  0  0
   78.5453   41.9367   43.1782 C   0  0  0  0  0  0  0  0  0  0  0  0
   78.2561   42.2952   41.8538 C   0  0  0  0  0  0  0  0  0  0  0  0
   77.1715   41.6632   41.0860 C   0  0  0  0  0  0  0  0  0  0  0  0
   76.6051   40.7009   41.5894 O   0  0  0  0  0  0  0  0  0  0  0  0
   76.8894   42.2382   39.8438 N   0  0  0  0  0  0  0  0  0  0  0  0
   75.8181   41.8664   39.0141 C   0  0  0  0  0  0  0  0  0  0  0  0
   75.6517   42.4025   37.7857 C   0  0  0  0  0  0  0  0  0  0  0  0
   76.3432   43.1745   37.0887 O   0  5  0  0  0  0  0  0  0  0  0  0
   74.5200   42.1468   37.0778 N   0  0  0  0  0  0  0  0  0  0  0  0
   73.5066   41.2833   37.3921 C   0  0  0  0  0  0  0  0  0  0  0  0
   72.4787   41.2047   36.7358 O   0  0  0  0  0  0  0  0  0  0  0  0
   73.8002   40.3516   38.5311 C   0  0  0  0  0  0  0  0  0  0  0  0
   74.7916   40.8968   39.5446 C   0  0  0  0  0  0  0  0  0  0  0  0
   77.6481   43.2733   39.3396 N   0  0  0  0  0  0  0  0  0  0  0  0
   78.6463   43.7553   39.9364 N   0  0  0  0  0  0  0  0  0  0  0  0
   78.9645   43.2900   41.2132 C   0  0  0  0  0  0  0  0  0  0  0  0
   80.0368   43.8797   41.8648 C   0  0  0  0  0  0  0  0  0  0  0  0
   80.3830   43.4911   43.1438 C   0  0  0  0  0  0  0  0  0  0  0  0
   79.6365   42.5290   43.7921 C   0  0  0  0  0  0  0  0  0  0  0  0
   77.9061   40.9344   44.8896 H   0  0  0  0  0  0  0  0  0  0  0  0
   76.9988   40.5650   43.4468 H   0  0  0  0  0  0  0  0  0  0  0  0
   74.4316   42.6977   36.2358 H   0  0  0  0  0  0  0  0  0  0  0  0
   72.8601   40.0994   39.0329 H   0  0  0  0  0  0  0  0  0  0  0  0
   74.1918   39.4271   38.0930 H   0  0  0  0  0  0  0  0  0  0  0  0
   75.2773   40.0184   39.9758 H   0  0  0  0  0  0  0  0  0  0  0  0
   74.2329   41.3849   40.3490 H   0  0  0  0  0  0  0  0  0  0  0  0
   80.6120   44.6543   41.3674 H   0  0  0  0  0  0  0  0  0  0  0  0
   81.2327   43.9422   43.6468 H   0  0  0  0  0  0  0  0  0  0  0  0
   79.9148   42.2371   44.8003 H   0  0  0  0  0  0  0  0  0  0  0  0
  1  2  1  0  0  0  0
  1 21  1  0  0  0  0
  1 22  1  0  0  0  0
  2  3  1  0  0  0  0
  2 20  2  0  0  0  0
  3  4  1  0  0  0  0
  3 17  2  0  0  0  0
  4  6  1  0  0  0  0
  4  5  2  0  0  0  0
  6  7  1  0  0  0  0
  6 15  1  0  0  0  0
  7  8  2  0  0  0  0
  7 14  1  0  0  0  0
  8  9  1  0  0  0  0
  8 10  1  0  0  0  0
 10 11  1  0  0  0  0
 10 23  1  0  0  0  0
 11 13  1  0  0  0  0
 11 12  2  0  0  0  0
 13 14  1  0  0  0  0
 13 24  1  0  0  0  0
 13 25  1  0  0  0  0
 14 26  1  0  0  0  0
 14 27  1  0  0  0  0
 15 16  2  0  0  0  0
 16 17  1  0  0  0  0
 17 18  1  0  0  0  0
 18 19  2  0  0  0  0
 18 28  1  0  0  0  0
 19 20  1  0  0  0  0
 19 29  1  0  0  0  0
 20 30  1  0  0  0  0
M  ZZC   1 n1
M  ZZC   2 c1
M  ZZC   3 c2
M  ZZC   4 c3
M  ZZC   5 o1
M  ZZC   6 n2
M  ZZC   7 c4
M  ZZC   8 c5
M  ZZC   9 o2
M  ZZC  10 n3
M  ZZC  11 c6
M  ZZC  12 o3
M  ZZC  13 c7
M  ZZC  14 c8
M  ZZC  15 n4
M  ZZC  16 n5
M  ZZC  17 c9
M  ZZC  18 c10
M  ZZC  19 c11
M  ZZC  20 c12
M  ZZC  21 h11
M  ZZC  22 h12
M  ZZC  23 h31
M  ZZC  24 h71
M  ZZC  25 h72
M  ZZC  26 h81
M  ZZC  27 h82
M  ZZC  28 h101
M  ZZC  29 h111
M  ZZC  30 h121
M  ZZM   1 40
M  ZZI   1 224
M  ZZM   2 37
M  ZZI   2 124
M  ZZM   3 37
M  ZZI   3 124
M  ZZM   4 3
M  ZZI   4 121
M  ZZM   5 7
M  ZZI   5 81
M  ZZM   6 10
M  ZZI   6 191
M  ZZM   7 2
M  ZZI   7 120
M  ZZM   8 2
M  ZZI   8 120
M  ZZM   9 35
M  ZZI   9 53
M  ZZM  10 10
M  ZZI  10 191
M  ZZM  11 3
M  ZZI  11 121
M  ZZM  12 7
M  ZZI  12 81
M  ZZM  13 1
M  ZZI  13 112
M  ZZM  14 1
M  ZZI  14 112
M  ZZM  15 9
M  ZZI  15 220
M  ZZM  16 9
M  ZZI  16 220
M  ZZM  17 37
M  ZZI  17 124
M  ZZM  18 37
M  ZZI  18 125
M  ZZM  19 37
M  ZZI  19 125
M  ZZM  20 37
M  ZZI  20 125
M  ZZM  21 28
M  ZZI  21 11
M  ZZM  22 28
M  ZZI  22 11
M  ZZM  23 28
M  ZZI  23 11
M  ZZM  24 5
M  ZZI  24 1
M  ZZM  25 5
M  ZZI  25 1
M  ZZM  26 5
M  ZZI  26 1
M  ZZM  27 5
M  ZZI  27 1
M  ZZM  28 5
M  ZZI  28 1
M  ZZM  29 5
M  ZZI  29 1
M  ZZM  30 5
M  ZZI  30 1
M  CHG  1   9  -1
M  END
> <IX>
1

> <NAME>
Cereblon_5VBP_1.pdb

> <Score>
-21.812121

> <Natom>
30

> <Nflex>
0

> <Hbond>
-3.285203

> <Hphob>
-4.088694

> <VwInt>
-31.914443

> <Dsolv>
18.570473

> <SolEl>
7.076432

> <Eintl>
4.25835

> <RecConf>
ND

> <projPath>
Cereblon_maps/

> <NAME_>
Cereblon_5VBP_1.pdb

$$$$
