Cereblon_2GQG_32.pdb
  MOLSOFT 04032206203D

 30 32  0  0  1  0  0  0  0  0999 V2000
   78.9596   42.3493   42.8082 C   0  0  0  0  0  0  0  0  0  0  0  0
   78.1540   42.0563   41.7207 C   0  0  0  0  0  0  0  0  0  0  0  0
   78.1615   42.8626   40.6133 C   0  0  0  0  0  0  0  0  0  0  0  0
   77.2322   42.3021   39.6252 C   0  0  0  0  0  0  0  0  0  0  0  0
   77.0140   42.7688   38.5147 O   0  0  0  0  0  0  0  0  0  0  0  0
   76.7073   41.1572   40.1929 N   0  0  0  0  0  0  0  0  0  0  0  0
   75.6924   40.3308   39.5346 C   0  0  2  0  0  0  0  0  0  0  0  0
   74.3101   40.9165   39.7947 C   0  0  0  0  0  0  0  0  0  0  0  0
   74.1238   42.1042   40.0024 O   0  0  0  0  0  0  0  0  0  0  0  0
   73.2538   40.0428   39.7101 N   0  0  0  0  0  0  0  0  0  0  0  0
   73.2837   38.6937   39.4571 C   0  0  0  0  0  0  0  0  0  0  0  0
   72.2629   38.0280   39.3966 O   0  0  0  0  0  0  0  0  0  0  0  0
   74.6461   38.0964   39.2060 C   0  0  0  0  0  0  0  0  0  0  0  0
   75.7294   38.8629   39.9436 C   0  0  0  0  0  0  0  0  0  0  0  0
   77.2302   40.9110   41.5269 C   0  0  0  0  0  0  0  0  0  0  0  0
   78.9668   43.9796   40.5058 C   0  0  0  0  0  0  0  0  0  0  0  0
   79.7873   44.2707   41.5868 C   0  0  0  0  0  0  0  0  0  0  0  0
   79.7823   43.4663   42.7244 C   0  0  0  0  0  0  0  0  0  0  0  0
   78.9593   41.7236   43.6960 H   0  0  0  0  0  0  0  0  0  0  0  0
   75.8562   40.4212   38.4586 H   0  0  0  0  0  0  0  0  0  0  0  0
   72.3372   40.4476   39.8543 H   0  0  0  0  0  0  0  0  0  0  0  0
   74.6387   37.0545   39.5417 H   0  0  0  0  0  0  0  0  0  0  0  0
   74.8228   38.1037   38.1258 H   0  0  0  0  0  0  0  0  0  0  0  0
   75.5736   38.7582   41.0221 H   0  0  0  0  0  0  0  0  0  0  0  0
   76.7106   38.4298   39.7224 H   0  0  0  0  0  0  0  0  0  0  0  0
   77.7725   39.9595   41.5397 H   0  0  0  0  0  0  0  0  0  0  0  0
   76.4205   40.9114   42.2595 H   0  0  0  0  0  0  0  0  0  0  0  0
   78.9549   44.5992   39.6164 H   0  0  0  0  0  0  0  0  0  0  0  0
   80.4343   45.1397   41.5487 H   0  0  0  0  0  0  0  0  0  0  0  0
   80.4315   43.7150   43.5588 H   0  0  0  0  0  0  0  0  0  0  0  0
  1 19  1  0  0  0  0
  1 18  2  0  0  0  0
  1  2  1  0  0  0  0
  2  3  2  0  0  0  0
  2 15  1  0  0  0  0
  3 16  1  0  0  0  0
  3  4  1  0  0  0  0
  4  6  1  0  0  0  0
  4  5  2  0  0  0  0
  6 15  1  0  0  0  0
  7  6  1  0  0  0  0
  7 20  1  0  0  0  0
  7  8  1  0  0  0  0
  7 14  1  0  0  0  0
  8  9  2  0  0  0  0
  8 10  1  0  0  0  0
 10 21  1  0  0  0  0
 10 11  1  0  0  0  0
 11 12  2  0  0  0  0
 11 13  1  0  0  0  0
 13 22  1  0  0  0  0
 13 23  1  0  0  0  0
 13 14  1  0  0  0  0
 14 24  1  0  0  0  0
 14 25  1  0  0  0  0
 15 26  1  0  0  0  0
 15 27  1  0  0  0  0
 16 17  2  0  0  0  0
 16 28  1  0  0  0  0
 17 18  1  0  0  0  0
 17 29  1  0  0  0  0
 18 30  1  0  0  0  0
M  ZZC   1 c1
M  ZZC   2 c2
M  ZZC   3 c3
M  ZZC   4 c4
M  ZZC   5 o1
M  ZZC   6 n1
M  ZZC   7 c5
M  ZZC   8 c6
M  ZZC   9 o2
M  ZZC  10 n2
M  ZZC  11 c7
M  ZZC  12 o3
M  ZZC  13 c8
M  ZZC  14 c9
M  ZZC  15 c10
M  ZZC  16 c11
M  ZZC  17 c12
M  ZZC  18 c13
M  ZZC  19 h11
M  ZZC  20 h51
M  ZZC  21 h21
M  ZZC  22 h81
M  ZZC  23 h82
M  ZZC  24 h91
M  ZZC  25 h92
M  ZZC  26 h101
M  ZZC  27 h102
M  ZZC  28 h111
M  ZZC  29 h121
M  ZZC  30 h131
M  ZZM   1 37
M  ZZI   1 125
M  ZZM   2 37
M  ZZI   2 124
M  ZZM   3 37
M  ZZI   3 124
M  ZZM   4 3
M  ZZI   4 121
M  ZZM   5 7
M  ZZI   5 81
M  ZZM   6 10
M  ZZI   6 192
M  ZZM   7 1
M  ZZI   7 113
M  ZZM   8 3
M  ZZI   8 121
M  ZZM   9 7
M  ZZI   9 81
M  ZZM  10 10
M  ZZI  10 191
M  ZZM  11 3
M  ZZI  11 121
M  ZZM  12 7
M  ZZI  12 81
M  ZZM  13 1
M  ZZI  13 112
M  ZZM  14 1
M  ZZI  14 112
M  ZZM  15 1
M  ZZI  15 112
M  ZZM  16 37
M  ZZI  16 125
M  ZZM  17 37
M  ZZI  17 125
M  ZZM  18 37
M  ZZI  18 125
M  ZZM  19 5
M  ZZI  19 1
M  ZZM  20 5
M  ZZI  20 1
M  ZZM  21 28
M  ZZI  21 11
M  ZZM  22 5
M  ZZI  22 1
M  ZZM  23 5
M  ZZI  23 1
M  ZZM  24 5
M  ZZI  24 1
M  ZZM  25 5
M  ZZI  25 1
M  ZZM  26 5
M  ZZI  26 1
M  ZZM  27 5
M  ZZI  27 1
M  ZZM  28 5
M  ZZI  28 1
M  ZZM  29 5
M  ZZI  29 1
M  ZZM  30 5
M  ZZI  30 1
M  END
> <IX>
1

> <NAME>
Cereblon_2GQG_32.pdb

> <Score>
-18.86233

> <Natom>
30

> <Nflex>
1

> <Hbond>
-3.259488

> <Hphob>
-3.88481

> <VwInt>
-21.08383

> <Dsolv>
10.945194

> <SolEl>
5.503909

> <Eintl>
1.04892

> <RecConf>
ND

> <projPath>
Cereblon_maps/

> <NAME_>
Cereblon_2GQG_32.pdb

$$$$
