Cereblon_6YBK_11.pdb
  MOLSOFT 04032206303D

 31 33  0  0  1  0  0  0  0  0999 V2000
   78.7224   41.7048   43.8963 N   0  0  0  0  0  0  0  0  0  0  0  0
   78.7964   42.4809   42.7289 C   0  0  0  0  0  0  0  0  0  0  0  0
   78.0725   42.1661   41.5911 C   0  0  0  0  0  0  0  0  0  0  0  0
   77.1645   41.0491   41.3657 C   0  0  0  0  0  0  0  0  0  0  0  0
   76.9619   40.1736   42.1941 O   0  0  0  0  0  0  0  0  0  0  0  0
   76.6586   41.2067   40.0910 N   0  0  0  0  0  0  0  0  0  0  0  0
   77.1959   42.3220   39.4816 C   0  0  0  0  0  0  0  0  0  0  0  0
   77.0064   42.7381   38.3459 O   0  0  0  0  0  0  0  0  0  0  0  0
   78.1087   42.9199   40.4570 C   0  0  0  0  0  0  0  0  0  0  0  0
   78.9291   44.0241   40.3475 C   0  0  0  0  0  0  0  0  0  0  0  0
   79.7176   44.3303   41.4512 C   0  0  0  0  0  0  0  0  0  0  0  0
   79.6510   43.5743   42.6234 C   0  0  0  0  0  0  0  0  0  0  0  0
   75.6438   40.3748   39.4405 C   0  0  2  0  0  0  0  0  0  0  0  0
   74.2737   40.9698   39.7181 C   0  0  0  0  0  0  0  0  0  0  0  0
   74.1130   42.1528   39.9700 O   0  0  0  0  0  0  0  0  0  0  0  0
   73.2053   40.1168   39.5892 N   0  0  0  0  0  0  0  0  0  0  0  0
   73.2201   38.7772   39.2855 C   0  0  0  0  0  0  0  0  0  0  0  0
   72.1893   38.1357   39.1617 O   0  0  0  0  0  0  0  0  0  0  0  0
   74.5802   38.1590   39.0635 C   0  0  0  0  0  0  0  0  0  0  0  0
   75.6572   38.9020   39.8348 C   0  0  0  0  0  0  0  0  0  0  0  0
   78.9813   42.1155   44.7923 H   0  0  0  0  0  0  0  0  0  0  0  0
   78.0753   40.9145   43.9067 H   0  0  0  0  0  0  0  0  0  0  0  0
   78.9550   44.6194   39.4425 H   0  0  0  0  0  0  0  0  0  0  0  0
   80.3873   45.1821   41.4071 H   0  0  0  0  0  0  0  0  0  0  0  0
   80.2748   43.8503   43.4681 H   0  0  0  0  0  0  0  0  0  0  0  0
   75.7989   40.4672   38.3643 H   0  0  0  0  0  0  0  0  0  0  0  0
   72.2921   40.5303   39.7316 H   0  0  0  0  0  0  0  0  0  0  0  0
   74.5469   37.1146   39.3896 H   0  0  0  0  0  0  0  0  0  0  0  0
   74.7856   38.1713   37.9887 H   0  0  0  0  0  0  0  0  0  0  0  0
   75.4606   38.7801   40.9037 H   0  0  0  0  0  0  0  0  0  0  0  0
   76.6398   38.4616   39.6367 H   0  0  0  0  0  0  0  0  0  0  0  0
  1  2  1  0  0  0  0
  1 21  1  0  0  0  0
  1 22  1  0  0  0  0
  2  3  1  0  0  0  0
  2 12  2  0  0  0  0
  3  9  2  0  0  0  0
  3  4  1  0  0  0  0
  4  5  2  0  0  0  0
  4  6  1  0  0  0  0
  6  7  1  0  0  0  0
 13  6  1  0  0  0  0
  7  8  2  0  0  0  0
  7  9  1  0  0  0  0
  9 10  1  0  0  0  0
 10 23  1  0  0  0  0
 10 11  2  0  0  0  0
 11 12  1  0  0  0  0
 11 24  1  0  0  0  0
 12 25  1  0  0  0  0
 13 26  1  0  0  0  0
 13 14  1  0  0  0  0
 13 20  1  0  0  0  0
 14 15  2  0  0  0  0
 14 16  1  0  0  0  0
 16 27  1  0  0  0  0
 16 17  1  0  0  0  0
 17 18  2  0  0  0  0
 17 19  1  0  0  0  0
 19 28  1  0  0  0  0
 19 29  1  0  0  0  0
 19 20  1  0  0  0  0
 20 30  1  0  0  0  0
 20 31  1  0  0  0  0
M  ZZC   1 n1
M  ZZC   2 c1
M  ZZC   3 c2
M  ZZC   4 c3
M  ZZC   5 o1
M  ZZC   6 n2
M  ZZC   7 c4
M  ZZC   8 o2
M  ZZC   9 c5
M  ZZC  10 c6
M  ZZC  11 c7
M  ZZC  12 c8
M  ZZC  13 c9
M  ZZC  14 c10
M  ZZC  15 o3
M  ZZC  16 n3
M  ZZC  17 c11
M  ZZC  18 o4
M  ZZC  19 c12
M  ZZC  20 c13
M  ZZC  21 h11
M  ZZC  22 h12
M  ZZC  23 h61
M  ZZC  24 h71
M  ZZC  25 h81
M  ZZC  26 h91
M  ZZC  27 h31
M  ZZC  28 h121
M  ZZC  29 h122
M  ZZC  30 h131
M  ZZC  31 h132
M  ZZM   1 40
M  ZZI   1 224
M  ZZM   2 37
M  ZZI   2 124
M  ZZM   3 37
M  ZZI   3 124
M  ZZM   4 3
M  ZZI   4 121
M  ZZM   5 7
M  ZZI   5 81
M  ZZM   6 10
M  ZZI   6 192
M  ZZM   7 3
M  ZZI   7 121
M  ZZM   8 7
M  ZZI   8 81
M  ZZM   9 37
M  ZZI   9 124
M  ZZM  10 37
M  ZZI  10 125
M  ZZM  11 37
M  ZZI  11 125
M  ZZM  12 37
M  ZZI  12 125
M  ZZM  13 1
M  ZZI  13 113
M  ZZM  14 3
M  ZZI  14 121
M  ZZM  15 7
M  ZZI  15 81
M  ZZM  16 10
M  ZZI  16 191
M  ZZM  17 3
M  ZZI  17 121
M  ZZM  18 7
M  ZZI  18 81
M  ZZM  19 1
M  ZZI  19 112
M  ZZM  20 1
M  ZZI  20 112
M  ZZM  21 28
M  ZZI  21 11
M  ZZM  22 28
M  ZZI  22 11
M  ZZM  23 5
M  ZZI  23 1
M  ZZM  24 5
M  ZZI  24 1
M  ZZM  25 5
M  ZZI  25 1
M  ZZM  26 5
M  ZZI  26 1
M  ZZM  27 28
M  ZZI  27 11
M  ZZM  28 5
M  ZZI  28 1
M  ZZM  29 5
M  ZZI  29 1
M  ZZM  30 5
M  ZZI  30 1
M  ZZM  31 5
M  ZZI  31 1
M  END
> <IX>
1

> <NAME>
Cereblon_6YBK_11.pdb

> <Score>
-21.193267

> <Natom>
31

> <Nflex>
1

> <Hbond>
-4.858851

> <Hphob>
-3.541763

> <VwInt>
-24.014787

> <Dsolv>
15.154467

> <SolEl>
6.5008

> <Eintl>
2.051693

> <RecConf>
ND

> <projPath>
Cereblon_maps/

> <NAME_>
Cereblon_6YBK_11.pdb

$$$$
