Cereblon_3HLL_12.pdb
  MOLSOFT 04032206203D

 29 31  0  0  1  0  0  0  0  0999 V2000
   79.0057   42.4922   42.6708 C   0  0  0  0  0  0  0  0  0  0  0  0
   78.1866   42.1969   41.5954 C   0  0  0  0  0  0  0  0  0  0  0  0
   77.2682   41.0790   41.4110 C   0  0  0  0  0  0  0  0  0  0  0  0
   77.0887   40.2185   42.2590 O   0  0  0  0  0  0  0  0  0  0  0  0
   76.7277   41.2203   40.1459 N   0  0  0  0  0  0  0  0  0  0  0  0
   77.2237   42.3475   39.5223 C   0  0  0  0  0  0  0  0  0  0  0  0
   76.9882   42.7650   38.3959 O   0  0  0  0  0  0  0  0  0  0  0  0
   78.1591   42.9594   40.4665 C   0  0  0  0  0  0  0  0  0  0  0  0
   78.9581   44.0753   40.3234 C   0  0  0  0  0  0  0  0  0  0  0  0
   79.8012   44.3850   41.3846 C   0  0  0  0  0  0  0  0  0  0  0  0
   79.8255   43.6071   42.5428 C   0  0  0  0  0  0  0  0  0  0  0  0
   75.7196   40.3652   39.5132 C   0  0  2  0  0  0  0  0  0  0  0  0
   74.3401   40.9345   39.8023 C   0  0  0  0  0  0  0  0  0  0  0  0
   74.1532   42.1210   40.0156 O   0  0  0  0  0  0  0  0  0  0  0  0
   73.2896   40.0527   39.7267 N   0  0  0  0  0  0  0  0  0  0  0  0
   73.3273   38.7071   39.4550 C   0  0  0  0  0  0  0  0  0  0  0  0
   72.3112   38.0342   39.3980 O   0  0  0  0  0  0  0  0  0  0  0  0
   74.6918   38.1255   39.1782 C   0  0  0  0  0  0  0  0  0  0  0  0
   75.7739   38.8949   39.9152 C   0  0  0  0  0  0  0  0  0  0  0  0
   79.0172   41.8773   43.5667 H   0  0  0  0  0  0  0  0  0  0  0  0
   78.9270   44.6762   39.4224 H   0  0  0  0  0  0  0  0  0  0  0  0
   80.4499   45.2502   41.3139 H   0  0  0  0  0  0  0  0  0  0  0  0
   80.4942   43.8762   43.3556 H   0  0  0  0  0  0  0  0  0  0  0  0
   75.8594   40.4523   38.4338 H   0  0  0  0  0  0  0  0  0  0  0  0
   72.3710   40.4462   39.8897 H   0  0  0  0  0  0  0  0  0  0  0  0
   74.6981   37.0799   39.5022 H   0  0  0  0  0  0  0  0  0  0  0  0
   74.8530   38.1474   38.0961 H   0  0  0  0  0  0  0  0  0  0  0  0
   76.7597   38.4738   39.6925 H   0  0  0  0  0  0  0  0  0  0  0  0
   75.6116   38.7760   40.9903 H   0  0  0  0  0  0  0  0  0  0  0  0
  1 20  1  0  0  0  0
  1  2  1  0  0  0  0
  1 11  2  0  0  0  0
  2  3  1  0  0  0  0
  2  8  2  0  0  0  0
  3  4  2  0  0  0  0
  3  5  1  0  0  0  0
  5  6  1  0  0  0  0
 12  5  1  0  0  0  0
  6  7  2  0  0  0  0
  6  8  1  0  0  0  0
  8  9  1  0  0  0  0
  9 21  1  0  0  0  0
  9 10  2  0  0  0  0
 10 22  1  0  0  0  0
 10 11  1  0  0  0  0
 11 23  1  0  0  0  0
 12 24  1  0  0  0  0
 12 13  1  0  0  0  0
 12 19  1  0  0  0  0
 13 14  2  0  0  0  0
 13 15  1  0  0  0  0
 15 25  1  0  0  0  0
 15 16  1  0  0  0  0
 16 17  2  0  0  0  0
 16 18  1  0  0  0  0
 18 26  1  0  0  0  0
 18 27  1  0  0  0  0
 18 19  1  0  0  0  0
 19 28  1  0  0  0  0
 19 29  1  0  0  0  0
M  ZZC   1 c1
M  ZZC   2 c2
M  ZZC   3 c3
M  ZZC   4 o1
M  ZZC   5 n1
M  ZZC   6 c4
M  ZZC   7 o2
M  ZZC   8 c5
M  ZZC   9 c6
M  ZZC  10 c7
M  ZZC  11 c8
M  ZZC  12 c9
M  ZZC  13 c10
M  ZZC  14 o3
M  ZZC  15 n2
M  ZZC  16 c11
M  ZZC  17 o4
M  ZZC  18 c12
M  ZZC  19 c13
M  ZZC  20 h11
M  ZZC  21 h61
M  ZZC  22 h71
M  ZZC  23 h81
M  ZZC  24 h91
M  ZZC  25 h21
M  ZZC  26 h121
M  ZZC  27 h122
M  ZZC  28 h131
M  ZZC  29 h132
M  ZZM   1 37
M  ZZI   1 125
M  ZZM   2 37
M  ZZI   2 124
M  ZZM   3 3
M  ZZI   3 121
M  ZZM   4 7
M  ZZI   4 81
M  ZZM   5 10
M  ZZI   5 192
M  ZZM   6 3
M  ZZI   6 121
M  ZZM   7 7
M  ZZI   7 81
M  ZZM   8 37
M  ZZI   8 124
M  ZZM   9 37
M  ZZI   9 125
M  ZZM  10 37
M  ZZI  10 125
M  ZZM  11 37
M  ZZI  11 125
M  ZZM  12 1
M  ZZI  12 113
M  ZZM  13 3
M  ZZI  13 121
M  ZZM  14 7
M  ZZI  14 81
M  ZZM  15 10
M  ZZI  15 191
M  ZZM  16 3
M  ZZI  16 121
M  ZZM  17 7
M  ZZI  17 81
M  ZZM  18 1
M  ZZI  18 112
M  ZZM  19 1
M  ZZI  19 112
M  ZZM  20 5
M  ZZI  20 1
M  ZZM  21 5
M  ZZI  21 1
M  ZZM  22 5
M  ZZI  22 1
M  ZZM  23 5
M  ZZI  23 1
M  ZZM  24 5
M  ZZI  24 1
M  ZZM  25 28
M  ZZI  25 11
M  ZZM  26 5
M  ZZI  26 1
M  ZZM  27 5
M  ZZI  27 1
M  ZZM  28 5
M  ZZI  28 1
M  ZZM  29 5
M  ZZI  29 1
M  END
> <IX>
1

> <NAME>
Cereblon_3HLL_12.pdb

> <Score>
-19.37066

> <Natom>
29

> <Nflex>
1

> <Hbond>
-3.371366

> <Hphob>
-3.533105

> <VwInt>
-22.697308

> <Dsolv>
12.002175

> <SolEl>
5.650369

> <Eintl>
1.487514

> <RecConf>
ND

> <projPath>
Cereblon_maps/

> <NAME_>
Cereblon_3HLL_12.pdb

$$$$
