Cereblon_6NUQ_14.pdb
  MOLSOFT 04032206283D

 30 32  0  0  1  0  0  0  0  0999 V2000
   75.7061   37.9208   39.7594 C   0  0  0  0  0  0  0  0  0  0  0  0
   75.0018   39.0143   39.2832 C   0  0  0  0  0  0  0  0  0  0  0  0
   75.3071   40.2691   39.7291 C   0  0  0  0  0  0  0  0  0  0  0  0
   74.4127   41.2208   39.0696 C   0  0  0  0  0  0  0  0  0  0  0  0
   74.4132   42.4172   39.3165 O   0  0  0  0  0  0  0  0  0  0  0  0
   73.6363   40.4924   38.1810 N   0  0  0  0  0  0  0  0  0  0  0  0
   72.6053   41.0071   37.2645 C   0  0  1  0  0  0  0  0  0  0  0  0
   71.2858   41.2474   37.9966 C   0  0  0  0  0  0  0  0  0  0  0  0
   70.9183   40.5799   38.9527 O   0  0  0  0  0  0  0  0  0  0  0  0
   70.4610   42.2079   37.4569 N   0  0  0  0  0  0  0  0  0  0  0  0
   70.6727   43.0190   36.3740 C   0  0  0  0  0  0  0  0  0  0  0  0
   69.8762   43.8940   36.0699 O   0  0  0  0  0  0  0  0  0  0  0  0
   71.9238   42.7313   35.5840 C   0  0  0  0  0  0  0  0  0  0  0  0
   73.0415   42.2550   36.4974 C   0  0  0  0  0  0  0  0  0  0  0  0
   73.8924   39.0665   38.2945 C   0  0  0  0  0  0  0  0  0  0  0  0
   76.3155   40.5251   40.6404 C   0  0  0  0  0  0  0  0  0  0  0  0
   77.0238   39.4338   41.1206 C   0  0  0  0  0  0  0  0  0  0  0  0
   76.7202   38.1472   40.6831 C   0  0  0  0  0  0  0  0  0  0  0  0
   75.4836   36.9142   39.4192 H   0  0  0  0  0  0  0  0  0  0  0  0
   72.4089   40.2149   36.5325 H   0  0  0  0  0  0  0  0  0  0  0  0
   69.5929   42.3706   37.9455 H   0  0  0  0  0  0  0  0  0  0  0  0
   71.6890   41.9822   34.8202 H   0  0  0  0  0  0  0  0  0  0  0  0
   72.2271   43.6501   35.0778 H   0  0  0  0  0  0  0  0  0  0  0  0
   73.9392   42.0419   35.9082 H   0  0  0  0  0  0  0  0  0  0  0  0
   73.3051   43.0657   37.1825 H   0  0  0  0  0  0  0  0  0  0  0  0
   74.1881   38.6628   37.3205 H   0  0  0  0  0  0  0  0  0  0  0  0
   72.9947   38.5630   38.6693 H   0  0  0  0  0  0  0  0  0  0  0  0
   76.5533   41.5346   40.9600 H   0  0  0  0  0  0  0  0  0  0  0  0
   77.8234   39.5865   41.8391 H   0  0  0  0  0  0  0  0  0  0  0  0
   77.2897   37.3069   41.0675 H   0  0  0  0  0  0  0  0  0  0  0  0
  1 19  1  0  0  0  0
  1 18  2  0  0  0  0
  1  2  1  0  0  0  0
  2  3  2  0  0  0  0
  2 15  1  0  0  0  0
  3 16  1  0  0  0  0
  3  4  1  0  0  0  0
  4  6  1  0  0  0  0
  4  5  2  0  0  0  0
  6 15  1  0  0  0  0
  7  6  1  0  0  0  0
  7 20  1  0  0  0  0
  7  8  1  0  0  0  0
  7 14  1  0  0  0  0
  8  9  2  0  0  0  0
  8 10  1  0  0  0  0
 10 21  1  0  0  0  0
 10 11  1  0  0  0  0
 11 12  2  0  0  0  0
 11 13  1  0  0  0  0
 13 22  1  0  0  0  0
 13 23  1  0  0  0  0
 13 14  1  0  0  0  0
 14 24  1  0  0  0  0
 14 25  1  0  0  0  0
 15 26  1  0  0  0  0
 15 27  1  0  0  0  0
 16 17  2  0  0  0  0
 16 28  1  0  0  0  0
 17 18  1  0  0  0  0
 17 29  1  0  0  0  0
 18 30  1  0  0  0  0
M  ZZC   1 c1
M  ZZC   2 c2
M  ZZC   3 c3
M  ZZC   4 c4
M  ZZC   5 o1
M  ZZC   6 n1
M  ZZC   7 c5
M  ZZC   8 c6
M  ZZC   9 o2
M  ZZC  10 n2
M  ZZC  11 c7
M  ZZC  12 o3
M  ZZC  13 c8
M  ZZC  14 c9
M  ZZC  15 c10
M  ZZC  16 c11
M  ZZC  17 c12
M  ZZC  18 c13
M  ZZC  19 h11
M  ZZC  20 h51
M  ZZC  21 h21
M  ZZC  22 h81
M  ZZC  23 h82
M  ZZC  24 h91
M  ZZC  25 h92
M  ZZC  26 h101
M  ZZC  27 h102
M  ZZC  28 h111
M  ZZC  29 h121
M  ZZC  30 h131
M  ZZM   1 37
M  ZZI   1 125
M  ZZM   2 37
M  ZZI   2 124
M  ZZM   3 37
M  ZZI   3 124
M  ZZM   4 3
M  ZZI   4 121
M  ZZM   5 7
M  ZZI   5 81
M  ZZM   6 10
M  ZZI   6 192
M  ZZM   7 1
M  ZZI   7 113
M  ZZM   8 3
M  ZZI   8 121
M  ZZM   9 7
M  ZZI   9 81
M  ZZM  10 10
M  ZZI  10 191
M  ZZM  11 3
M  ZZI  11 121
M  ZZM  12 7
M  ZZI  12 81
M  ZZM  13 1
M  ZZI  13 112
M  ZZM  14 1
M  ZZI  14 112
M  ZZM  15 1
M  ZZI  15 112
M  ZZM  16 37
M  ZZI  16 125
M  ZZM  17 37
M  ZZI  17 125
M  ZZM  18 37
M  ZZI  18 125
M  ZZM  19 5
M  ZZI  19 1
M  ZZM  20 5
M  ZZI  20 1
M  ZZM  21 28
M  ZZI  21 11
M  ZZM  22 5
M  ZZI  22 1
M  ZZM  23 5
M  ZZI  23 1
M  ZZM  24 5
M  ZZI  24 1
M  ZZM  25 5
M  ZZI  25 1
M  ZZM  26 5
M  ZZI  26 1
M  ZZM  27 5
M  ZZI  27 1
M  ZZM  28 5
M  ZZI  28 1
M  ZZM  29 5
M  ZZI  29 1
M  ZZM  30 5
M  ZZI  30 1
M  END
> <IX>
1

> <NAME>
Cereblon_6NUQ_14.pdb

> <Score>
-20.717622

> <Natom>
30

> <Nflex>
1

> <Hbond>
-4.617206

> <Hphob>
-3.583303

> <VwInt>
-21.980715

> <Dsolv>
13.313289

> <SolEl>
5.667759

> <Eintl>
1.699584

> <RecConf>
ND

> <projPath>
Cereblon_maps/

> <NAME_>
Cereblon_6NUQ_14.pdb

$$$$
