Cereblon_1FKH_8.pdb
  MOLSOFT 04032206193D

 30 32  0  0  1  0  0  0  0  0999 V2000
   75.6756   37.9136   39.7447 C   0  0  0  0  0  0  0  0  0  0  0  0
   74.9839   39.0144   39.2679 C   0  0  0  0  0  0  0  0  0  0  0  0
   75.2996   40.2654   39.7167 C   0  0  0  0  0  0  0  0  0  0  0  0
   74.4159   41.2268   39.0553 C   0  0  0  0  0  0  0  0  0  0  0  0
   74.4221   42.4215   39.3103 O   0  0  0  0  0  0  0  0  0  0  0  0
   73.6404   40.5079   38.1580 N   0  0  0  0  0  0  0  0  0  0  0  0
   72.6067   41.0333   37.2507 C   0  0  1  0  0  0  0  0  0  0  0  0
   71.2842   41.2539   37.9837 C   0  0  0  0  0  0  0  0  0  0  0  0
   70.9242   40.5768   38.9359 O   0  0  0  0  0  0  0  0  0  0  0  0
   70.4472   42.2059   37.4480 N   0  0  0  0  0  0  0  0  0  0  0  0
   70.6562   43.0345   36.3778 C   0  0  0  0  0  0  0  0  0  0  0  0
   69.8526   43.9056   36.0817 O   0  0  0  0  0  0  0  0  0  0  0  0
   71.9163   42.7740   35.5924 C   0  0  0  0  0  0  0  0  0  0  0  0
   73.0354   42.2960   36.5035 C   0  0  0  0  0  0  0  0  0  0  0  0
   73.8763   39.0787   38.2778 C   0  0  0  0  0  0  0  0  0  0  0  0
   76.3046   40.5102   40.6347 C   0  0  0  0  0  0  0  0  0  0  0  0
   77.0015   39.4115   41.1149 C   0  0  0  0  0  0  0  0  0  0  0  0
   76.6886   38.1289   40.6723 C   0  0  0  0  0  0  0  0  0  0  0  0
   75.4431   36.9099   39.4029 H   0  0  0  0  0  0  0  0  0  0  0  0
   72.4169   40.2513   36.5061 H   0  0  0  0  0  0  0  0  0  0  0  0
   69.5757   42.3539   37.9355 H   0  0  0  0  0  0  0  0  0  0  0  0
   71.6954   42.0359   34.8139 H   0  0  0  0  0  0  0  0  0  0  0  0
   72.2112   43.7055   35.1051 H   0  0  0  0  0  0  0  0  0  0  0  0
   73.9376   42.0993   35.9155 H   0  0  0  0  0  0  0  0  0  0  0  0
   73.2874   43.0992   37.2016 H   0  0  0  0  0  0  0  0  0  0  0  0
   74.1670   38.6675   37.3053 H   0  0  0  0  0  0  0  0  0  0  0  0
   72.9718   38.5892   38.6547 H   0  0  0  0  0  0  0  0  0  0  0  0
   76.5482   41.5166   40.9594 H   0  0  0  0  0  0  0  0  0  0  0  0
   77.7983   39.5552   41.8383 H   0  0  0  0  0  0  0  0  0  0  0  0
   77.2483   37.2823   41.0571 H   0  0  0  0  0  0  0  0  0  0  0  0
  1 19  1  0  0  0  0
  1 18  2  0  0  0  0
  1  2  1  0  0  0  0
  2  3  2  0  0  0  0
  2 15  1  0  0  0  0
  3 16  1  0  0  0  0
  3  4  1  0  0  0  0
  4  6  1  0  0  0  0
  4  5  2  0  0  0  0
  6 15  1  0  0  0  0
  7  6  1  0  0  0  0
  7 20  1  0  0  0  0
  7  8  1  0  0  0  0
  7 14  1  0  0  0  0
  8  9  2  0  0  0  0
  8 10  1  0  0  0  0
 10 21  1  0  0  0  0
 10 11  1  0  0  0  0
 11 12  2  0  0  0  0
 11 13  1  0  0  0  0
 13 22  1  0  0  0  0
 13 23  1  0  0  0  0
 13 14  1  0  0  0  0
 14 24  1  0  0  0  0
 14 25  1  0  0  0  0
 15 26  1  0  0  0  0
 15 27  1  0  0  0  0
 16 17  2  0  0  0  0
 16 28  1  0  0  0  0
 17 18  1  0  0  0  0
 17 29  1  0  0  0  0
 18 30  1  0  0  0  0
M  ZZC   1 c1
M  ZZC   2 c2
M  ZZC   3 c3
M  ZZC   4 c4
M  ZZC   5 o1
M  ZZC   6 n1
M  ZZC   7 c5
M  ZZC   8 c6
M  ZZC   9 o2
M  ZZC  10 n2
M  ZZC  11 c7
M  ZZC  12 o3
M  ZZC  13 c8
M  ZZC  14 c9
M  ZZC  15 c10
M  ZZC  16 c11
M  ZZC  17 c12
M  ZZC  18 c13
M  ZZC  19 h11
M  ZZC  20 h51
M  ZZC  21 h21
M  ZZC  22 h81
M  ZZC  23 h82
M  ZZC  24 h91
M  ZZC  25 h92
M  ZZC  26 h101
M  ZZC  27 h102
M  ZZC  28 h111
M  ZZC  29 h121
M  ZZC  30 h131
M  ZZM   1 37
M  ZZI   1 125
M  ZZM   2 37
M  ZZI   2 124
M  ZZM   3 37
M  ZZI   3 124
M  ZZM   4 3
M  ZZI   4 121
M  ZZM   5 7
M  ZZI   5 81
M  ZZM   6 10
M  ZZI   6 192
M  ZZM   7 1
M  ZZI   7 113
M  ZZM   8 3
M  ZZI   8 121
M  ZZM   9 7
M  ZZI   9 81
M  ZZM  10 10
M  ZZI  10 191
M  ZZM  11 3
M  ZZI  11 121
M  ZZM  12 7
M  ZZI  12 81
M  ZZM  13 1
M  ZZI  13 112
M  ZZM  14 1
M  ZZI  14 112
M  ZZM  15 1
M  ZZI  15 112
M  ZZM  16 37
M  ZZI  16 125
M  ZZM  17 37
M  ZZI  17 125
M  ZZM  18 37
M  ZZI  18 125
M  ZZM  19 5
M  ZZI  19 1
M  ZZM  20 5
M  ZZI  20 1
M  ZZM  21 28
M  ZZI  21 11
M  ZZM  22 5
M  ZZI  22 1
M  ZZM  23 5
M  ZZI  23 1
M  ZZM  24 5
M  ZZI  24 1
M  ZZM  25 5
M  ZZI  25 1
M  ZZM  26 5
M  ZZI  26 1
M  ZZM  27 5
M  ZZI  27 1
M  ZZM  28 5
M  ZZI  28 1
M  ZZM  29 5
M  ZZI  29 1
M  ZZM  30 5
M  ZZI  30 1
M  END
> <IX>
1

> <NAME>
Cereblon_1FKH_8.pdb

> <Score>
-20.734643

> <Natom>
30

> <Nflex>
1

> <Hbond>
-4.636722

> <Hphob>
-3.541239

> <VwInt>
-21.901396

> <Dsolv>
13.224609

> <SolEl>
5.631168

> <Eintl>
1.725435

> <RecConf>
ND

> <projPath>
Cereblon_maps/

> <NAME_>
Cereblon_1FKH_8.pdb

$$$$
