Cereblon_6Z45_7.pdb
  MOLSOFT 04032206303D

 29 31  0  0  1  0  0  0  0  0999 V2000
   79.0019   42.4913   42.6701 C   0  0  0  0  0  0  0  0  0  0  0  0
   78.1836   42.1961   41.5940 C   0  0  0  0  0  0  0  0  0  0  0  0
   77.2661   41.0780   41.4088 C   0  0  0  0  0  0  0  0  0  0  0  0
   77.0847   40.2177   42.2567 O   0  0  0  0  0  0  0  0  0  0  0  0
   76.7261   41.2199   40.1438 N   0  0  0  0  0  0  0  0  0  0  0  0
   77.2231   42.3462   39.5199 C   0  0  0  0  0  0  0  0  0  0  0  0
   76.9879   42.7640   38.3935 O   0  0  0  0  0  0  0  0  0  0  0  0
   78.1566   42.9586   40.4652 C   0  0  0  0  0  0  0  0  0  0  0  0
   78.9558   44.0747   40.3224 C   0  0  0  0  0  0  0  0  0  0  0  0
   79.7978   44.3845   41.3848 C   0  0  0  0  0  0  0  0  0  0  0  0
   79.8215   43.6064   42.5430 C   0  0  0  0  0  0  0  0  0  0  0  0
   75.7172   40.3649   39.5125 C   0  0  2  0  0  0  0  0  0  0  0  0
   74.3385   40.9344   39.8035 C   0  0  0  0  0  0  0  0  0  0  0  0
   74.1503   42.1202   40.0193 O   0  0  0  0  0  0  0  0  0  0  0  0
   73.2875   40.0532   39.7283 N   0  0  0  0  0  0  0  0  0  0  0  0
   73.3241   38.7086   39.4506 C   0  0  0  0  0  0  0  0  0  0  0  0
   72.3072   38.0378   39.3843 O   0  0  0  0  0  0  0  0  0  0  0  0
   74.6884   38.1247   39.1766 C   0  0  0  0  0  0  0  0  0  0  0  0
   75.7711   38.8935   39.9138 C   0  0  0  0  0  0  0  0  0  0  0  0
   79.0126   41.8772   43.5663 H   0  0  0  0  0  0  0  0  0  0  0  0
   78.9260   44.6745   39.4212 H   0  0  0  0  0  0  0  0  0  0  0  0
   80.4462   45.2503   41.3164 H   0  0  0  0  0  0  0  0  0  0  0  0
   80.4882   43.8743   43.3575 H   0  0  0  0  0  0  0  0  0  0  0  0
   75.8543   40.4532   38.4325 H   0  0  0  0  0  0  0  0  0  0  0  0
   72.3692   40.4477   39.8900 H   0  0  0  0  0  0  0  0  0  0  0  0
   74.6928   37.0798   39.5034 H   0  0  0  0  0  0  0  0  0  0  0  0
   74.8521   38.1460   38.0949 H   0  0  0  0  0  0  0  0  0  0  0  0
   76.7563   38.4714   39.6897 H   0  0  0  0  0  0  0  0  0  0  0  0
   75.6084   38.7736   40.9885 H   0  0  0  0  0  0  0  0  0  0  0  0
  1 20  1  0  0  0  0
  1  2  1  0  0  0  0
  1 11  2  0  0  0  0
  2  3  1  0  0  0  0
  2  8  2  0  0  0  0
  3  4  2  0  0  0  0
  3  5  1  0  0  0  0
  5  6  1  0  0  0  0
 12  5  1  0  0  0  0
  6  7  2  0  0  0  0
  6  8  1  0  0  0  0
  8  9  1  0  0  0  0
  9 21  1  0  0  0  0
  9 10  2  0  0  0  0
 10 22  1  0  0  0  0
 10 11  1  0  0  0  0
 11 23  1  0  0  0  0
 12 24  1  0  0  0  0
 12 13  1  0  0  0  0
 12 19  1  0  0  0  0
 13 14  2  0  0  0  0
 13 15  1  0  0  0  0
 15 25  1  0  0  0  0
 15 16  1  0  0  0  0
 16 17  2  0  0  0  0
 16 18  1  0  0  0  0
 18 26  1  0  0  0  0
 18 27  1  0  0  0  0
 18 19  1  0  0  0  0
 19 28  1  0  0  0  0
 19 29  1  0  0  0  0
M  ZZC   1 c1
M  ZZC   2 c2
M  ZZC   3 c3
M  ZZC   4 o1
M  ZZC   5 n1
M  ZZC   6 c4
M  ZZC   7 o2
M  ZZC   8 c5
M  ZZC   9 c6
M  ZZC  10 c7
M  ZZC  11 c8
M  ZZC  12 c9
M  ZZC  13 c10
M  ZZC  14 o3
M  ZZC  15 n2
M  ZZC  16 c11
M  ZZC  17 o4
M  ZZC  18 c12
M  ZZC  19 c13
M  ZZC  20 h11
M  ZZC  21 h61
M  ZZC  22 h71
M  ZZC  23 h81
M  ZZC  24 h91
M  ZZC  25 h21
M  ZZC  26 h121
M  ZZC  27 h122
M  ZZC  28 h131
M  ZZC  29 h132
M  ZZM   1 37
M  ZZI   1 125
M  ZZM   2 37
M  ZZI   2 124
M  ZZM   3 3
M  ZZI   3 121
M  ZZM   4 7
M  ZZI   4 81
M  ZZM   5 10
M  ZZI   5 192
M  ZZM   6 3
M  ZZI   6 121
M  ZZM   7 7
M  ZZI   7 81
M  ZZM   8 37
M  ZZI   8 124
M  ZZM   9 37
M  ZZI   9 125
M  ZZM  10 37
M  ZZI  10 125
M  ZZM  11 37
M  ZZI  11 125
M  ZZM  12 1
M  ZZI  12 113
M  ZZM  13 3
M  ZZI  13 121
M  ZZM  14 7
M  ZZI  14 81
M  ZZM  15 10
M  ZZI  15 191
M  ZZM  16 3
M  ZZI  16 121
M  ZZM  17 7
M  ZZI  17 81
M  ZZM  18 1
M  ZZI  18 112
M  ZZM  19 1
M  ZZI  19 112
M  ZZM  20 5
M  ZZI  20 1
M  ZZM  21 5
M  ZZI  21 1
M  ZZM  22 5
M  ZZI  22 1
M  ZZM  23 5
M  ZZI  23 1
M  ZZM  24 5
M  ZZI  24 1
M  ZZM  25 28
M  ZZI  25 11
M  ZZM  26 5
M  ZZI  26 1
M  ZZM  27 5
M  ZZI  27 1
M  ZZM  28 5
M  ZZI  28 1
M  ZZM  29 5
M  ZZI  29 1
M  END
> <IX>
1

> <NAME>
Cereblon_6Z45_7.pdb

> <Score>
-19.354392

> <Natom>
29

> <Nflex>
1

> <Hbond>
-3.365808

> <Hphob>
-3.529252

> <VwInt>
-22.68289

> <Dsolv>
12.03169

> <SolEl>
5.625211

> <Eintl>
1.453642

> <RecConf>
ND

> <projPath>
Cereblon_maps/

> <NAME_>
Cereblon_6Z45_7.pdb

$$$$
