Cereblon_5E80_8.pdb
  MOLSOFT 04032206243D

 31 33  0  0  1  0  0  0  0  0999 V2000
   79.5247   44.3346   40.2838 N   0  0  0  0  0  0  0  0  0  0  0  0
   79.1892   43.4826   41.3429 C   0  0  0  0  0  0  0  0  0  0  0  0
   78.2546   42.4699   41.1984 C   0  0  0  0  0  0  0  0  0  0  0  0
   77.3877   42.1403   40.0634 C   0  0  0  0  0  0  0  0  0  0  0  0
   77.2822   42.8144   39.0467 O   0  0  0  0  0  0  0  0  0  0  0  0
   76.7332   40.9707   40.4009 N   0  0  0  0  0  0  0  0  0  0  0  0
   77.1360   40.5339   41.6492 C   0  0  0  0  0  0  0  0  0  0  0  0
   76.8969   39.4928   42.2409 O   0  0  0  0  0  0  0  0  0  0  0  0
   78.0448   41.5438   42.1722 C   0  0  0  0  0  0  0  0  0  0  0  0
   78.6852   41.5919   43.3953 C   0  0  0  0  0  0  0  0  0  0  0  0
   79.6071   42.6138   43.5771 C   0  0  0  0  0  0  0  0  0  0  0  0
   79.8705   43.5290   42.5571 C   0  0  0  0  0  0  0  0  0  0  0  0
   75.7400   40.3423   39.5186 C   0  0  2  0  0  0  0  0  0  0  0  0
   74.4224   41.0978   39.6418 C   0  0  0  0  0  0  0  0  0  0  0  0
   74.3728   42.2794   39.9389 O   0  0  0  0  0  0  0  0  0  0  0  0
   73.2823   40.4167   39.2948 N   0  0  0  0  0  0  0  0  0  0  0  0
   73.1605   39.1112   38.8867 C   0  0  0  0  0  0  0  0  0  0  0  0
   72.0834   38.6376   38.5622 O   0  0  0  0  0  0  0  0  0  0  0  0
   74.4416   38.3178   38.8096 C   0  0  0  0  0  0  0  0  0  0  0  0
   75.4895   38.8551   39.7701 C   0  0  0  0  0  0  0  0  0  0  0  0
   80.1491   45.1176   40.4558 H   0  0  0  0  0  0  0  0  0  0  0  0
   78.9020   44.3600   39.4753 H   0  0  0  0  0  0  0  0  0  0  0  0
   78.4926   40.8543   44.1694 H   0  0  0  0  0  0  0  0  0  0  0  0
   80.1484   42.6874   44.5160 H   0  0  0  0  0  0  0  0  0  0  0  0
   80.6217   44.2943   42.7205 H   0  0  0  0  0  0  0  0  0  0  0  0
   76.0867   40.4909   38.4928 H   0  0  0  0  0  0  0  0  0  0  0  0
   72.4245   40.9546   39.3359 H   0  0  0  0  0  0  0  0  0  0  0  0
   74.2196   37.2742   39.0545 H   0  0  0  0  0  0  0  0  0  0  0  0
   74.7972   38.3494   37.7769 H   0  0  0  0  0  0  0  0  0  0  0  0
   75.1266   38.6969   40.7903 H   0  0  0  0  0  0  0  0  0  0  0  0
   76.4202   38.2877   39.6668 H   0  0  0  0  0  0  0  0  0  0  0  0
  1  2  1  0  0  0  0
  1 21  1  0  0  0  0
  1 22  1  0  0  0  0
  2  3  1  0  0  0  0
  2 12  2  0  0  0  0
  3  9  2  0  0  0  0
  3  4  1  0  0  0  0
  4  5  2  0  0  0  0
  4  6  1  0  0  0  0
  6  7  1  0  0  0  0
 13  6  1  0  0  0  0
  7  8  2  0  0  0  0
  7  9  1  0  0  0  0
  9 10  1  0  0  0  0
 10 23  1  0  0  0  0
 10 11  2  0  0  0  0
 11 12  1  0  0  0  0
 11 24  1  0  0  0  0
 12 25  1  0  0  0  0
 13 26  1  0  0  0  0
 13 14  1  0  0  0  0
 13 20  1  0  0  0  0
 14 15  2  0  0  0  0
 14 16  1  0  0  0  0
 16 27  1  0  0  0  0
 16 17  1  0  0  0  0
 17 18  2  0  0  0  0
 17 19  1  0  0  0  0
 19 28  1  0  0  0  0
 19 29  1  0  0  0  0
 19 20  1  0  0  0  0
 20 30  1  0  0  0  0
 20 31  1  0  0  0  0
M  ZZC   1 n1
M  ZZC   2 c1
M  ZZC   3 c2
M  ZZC   4 c3
M  ZZC   5 o1
M  ZZC   6 n2
M  ZZC   7 c4
M  ZZC   8 o2
M  ZZC   9 c5
M  ZZC  10 c6
M  ZZC  11 c7
M  ZZC  12 c8
M  ZZC  13 c9
M  ZZC  14 c10
M  ZZC  15 o3
M  ZZC  16 n3
M  ZZC  17 c11
M  ZZC  18 o4
M  ZZC  19 c12
M  ZZC  20 c13
M  ZZC  21 h11
M  ZZC  22 h12
M  ZZC  23 h61
M  ZZC  24 h71
M  ZZC  25 h81
M  ZZC  26 h91
M  ZZC  27 h31
M  ZZC  28 h121
M  ZZC  29 h122
M  ZZC  30 h131
M  ZZC  31 h132
M  ZZM   1 40
M  ZZI   1 224
M  ZZM   2 37
M  ZZI   2 124
M  ZZM   3 37
M  ZZI   3 124
M  ZZM   4 3
M  ZZI   4 121
M  ZZM   5 7
M  ZZI   5 81
M  ZZM   6 10
M  ZZI   6 192
M  ZZM   7 3
M  ZZI   7 121
M  ZZM   8 7
M  ZZI   8 81
M  ZZM   9 37
M  ZZI   9 124
M  ZZM  10 37
M  ZZI  10 125
M  ZZM  11 37
M  ZZI  11 125
M  ZZM  12 37
M  ZZI  12 125
M  ZZM  13 1
M  ZZI  13 113
M  ZZM  14 3
M  ZZI  14 121
M  ZZM  15 7
M  ZZI  15 81
M  ZZM  16 10
M  ZZI  16 191
M  ZZM  17 3
M  ZZI  17 121
M  ZZM  18 7
M  ZZI  18 81
M  ZZM  19 1
M  ZZI  19 112
M  ZZM  20 1
M  ZZI  20 112
M  ZZM  21 28
M  ZZI  21 11
M  ZZM  22 28
M  ZZI  22 11
M  ZZM  23 5
M  ZZI  23 1
M  ZZM  24 5
M  ZZI  24 1
M  ZZM  25 5
M  ZZI  25 1
M  ZZM  26 5
M  ZZI  26 1
M  ZZM  27 28
M  ZZI  27 11
M  ZZM  28 5
M  ZZI  28 1
M  ZZM  29 5
M  ZZI  29 1
M  ZZM  30 5
M  ZZI  30 1
M  ZZM  31 5
M  ZZI  31 1
M  END
> <IX>
1

> <NAME>
Cereblon_5E80_8.pdb

> <Score>
-13.109795

> <Natom>
31

> <Nflex>
1

> <Hbond>
-2.939032

> <Hphob>
-3.657734

> <VwInt>
-22.467629

> <Dsolv>
16.261856

> <SolEl>
6.255266

> <Eintl>
3.865666

> <RecConf>
ND

> <projPath>
Cereblon_maps/

> <NAME_>
Cereblon_5E80_8.pdb

$$$$
