Cereblon_6J3P_2.pdb
  MOLSOFT 04032206283D

 29 31  0  0  1  0  0  0  0  0999 V2000
   76.3198   40.4940   40.6568 C   0  0  0  0  0  0  0  0  0  0  0  0
   75.3308   40.2848   39.7128 C   0  0  0  0  0  0  0  0  0  0  0  0
   74.4588   41.2482   39.0472 C   0  0  0  0  0  0  0  0  0  0  0  0
   74.4497   42.4334   39.3419 O   0  0  0  0  0  0  0  0  0  0  0  0
   73.6968   40.5320   38.1416 N   0  0  0  0  0  0  0  0  0  0  0  0
   73.9628   39.1814   38.2506 C   0  0  0  0  0  0  0  0  0  0  0  0
   73.4577   38.2393   37.6575 O   0  0  0  0  0  0  0  0  0  0  0  0
   75.0204   39.0439   39.2505 C   0  0  0  0  0  0  0  0  0  0  0  0
   75.6673   37.9101   39.7072 C   0  0  0  0  0  0  0  0  0  0  0  0
   76.6641   38.0955   40.6591 C   0  0  0  0  0  0  0  0  0  0  0  0
   76.9864   39.3695   41.1273 C   0  0  0  0  0  0  0  0  0  0  0  0
   72.6657   41.0690   37.2410 C   0  0  1  0  0  0  0  0  0  0  0  0
   71.3585   41.2740   38.0001 C   0  0  0  0  0  0  0  0  0  0  0  0
   71.0462   40.6207   38.9849 O   0  0  0  0  0  0  0  0  0  0  0  0
   70.4880   42.1934   37.4604 N   0  0  0  0  0  0  0  0  0  0  0  0
   70.6787   43.0406   36.4005 C   0  0  0  0  0  0  0  0  0  0  0  0
   69.8550   43.8965   36.1149 O   0  0  0  0  0  0  0  0  0  0  0  0
   71.9485   42.8271   35.6160 C   0  0  0  0  0  0  0  0  0  0  0  0
   73.0774   42.3482   36.5153 C   0  0  0  0  0  0  0  0  0  0  0  0
   76.5745   41.4886   41.0096 H   0  0  0  0  0  0  0  0  0  0  0  0
   75.4150   36.9215   39.3353 H   0  0  0  0  0  0  0  0  0  0  0  0
   77.2027   37.2346   41.0430 H   0  0  0  0  0  0  0  0  0  0  0  0
   77.7701   39.4860   41.8701 H   0  0  0  0  0  0  0  0  0  0  0  0
   72.4546   40.2972   36.4916 H   0  0  0  0  0  0  0  0  0  0  0  0
   69.6183   42.3241   37.9559 H   0  0  0  0  0  0  0  0  0  0  0  0
   71.7455   42.1067   34.8164 H   0  0  0  0  0  0  0  0  0  0  0  0
   72.2245   43.7782   35.1563 H   0  0  0  0  0  0  0  0  0  0  0  0
   73.3232   43.1421   37.2258 H   0  0  0  0  0  0  0  0  0  0  0  0
   73.9797   42.1727   35.9209 H   0  0  0  0  0  0  0  0  0  0  0  0
  1 20  1  0  0  0  0
  1  2  1  0  0  0  0
  1 11  2  0  0  0  0
  2  3  1  0  0  0  0
  2  8  2  0  0  0  0
  3  4  2  0  0  0  0
  3  5  1  0  0  0  0
  5  6  1  0  0  0  0
 12  5  1  0  0  0  0
  6  7  2  0  0  0  0
  6  8  1  0  0  0  0
  8  9  1  0  0  0  0
  9 21  1  0  0  0  0
  9 10  2  0  0  0  0
 10 22  1  0  0  0  0
 10 11  1  0  0  0  0
 11 23  1  0  0  0  0
 12 24  1  0  0  0  0
 12 13  1  0  0  0  0
 12 19  1  0  0  0  0
 13 14  2  0  0  0  0
 13 15  1  0  0  0  0
 15 25  1  0  0  0  0
 15 16  1  0  0  0  0
 16 17  2  0  0  0  0
 16 18  1  0  0  0  0
 18 26  1  0  0  0  0
 18 27  1  0  0  0  0
 18 19  1  0  0  0  0
 19 28  1  0  0  0  0
 19 29  1  0  0  0  0
M  ZZC   1 c1
M  ZZC   2 c2
M  ZZC   3 c3
M  ZZC   4 o1
M  ZZC   5 n1
M  ZZC   6 c4
M  ZZC   7 o2
M  ZZC   8 c5
M  ZZC   9 c6
M  ZZC  10 c7
M  ZZC  11 c8
M  ZZC  12 c9
M  ZZC  13 c10
M  ZZC  14 o3
M  ZZC  15 n2
M  ZZC  16 c11
M  ZZC  17 o4
M  ZZC  18 c12
M  ZZC  19 c13
M  ZZC  20 h11
M  ZZC  21 h61
M  ZZC  22 h71
M  ZZC  23 h81
M  ZZC  24 h91
M  ZZC  25 h21
M  ZZC  26 h121
M  ZZC  27 h122
M  ZZC  28 h131
M  ZZC  29 h132
M  ZZM   1 37
M  ZZI   1 125
M  ZZM   2 37
M  ZZI   2 124
M  ZZM   3 3
M  ZZI   3 121
M  ZZM   4 7
M  ZZI   4 81
M  ZZM   5 10
M  ZZI   5 192
M  ZZM   6 3
M  ZZI   6 121
M  ZZM   7 7
M  ZZI   7 81
M  ZZM   8 37
M  ZZI   8 124
M  ZZM   9 37
M  ZZI   9 125
M  ZZM  10 37
M  ZZI  10 125
M  ZZM  11 37
M  ZZI  11 125
M  ZZM  12 1
M  ZZI  12 113
M  ZZM  13 3
M  ZZI  13 121
M  ZZM  14 7
M  ZZI  14 81
M  ZZM  15 10
M  ZZI  15 191
M  ZZM  16 3
M  ZZI  16 121
M  ZZM  17 7
M  ZZI  17 81
M  ZZM  18 1
M  ZZI  18 112
M  ZZM  19 1
M  ZZI  19 112
M  ZZM  20 5
M  ZZI  20 1
M  ZZM  21 5
M  ZZI  21 1
M  ZZM  22 5
M  ZZI  22 1
M  ZZM  23 5
M  ZZI  23 1
M  ZZM  24 5
M  ZZI  24 1
M  ZZM  25 28
M  ZZI  25 11
M  ZZM  26 5
M  ZZI  26 1
M  ZZM  27 5
M  ZZI  27 1
M  ZZM  28 5
M  ZZI  28 1
M  ZZM  29 5
M  ZZI  29 1
M  END
> <IX>
1

> <NAME>
Cereblon_6J3P_2.pdb

> <Score>
-20.659665

> <Natom>
29

> <Nflex>
1

> <Hbond>
-4.55728

> <Hphob>
-3.509924

> <VwInt>
-22.420672

> <Dsolv>
13.3024

> <SolEl>
7.151914

> <Eintl>
0.575852

> <RecConf>
ND

> <projPath>
Cereblon_maps/

> <NAME_>
Cereblon_6J3P_2.pdb

$$$$
