Cereblon_5T8E_62.pdb
  MOLSOFT 04032206263D

 29 31  0  0  1  0  0  0  0  0999 V2000
   57.2141   54.3408   55.6027 C   0  0  0  0  0  0  0  0  0  0  0  0
   55.8927   54.3722   55.2061 C   0  0  0  0  0  0  0  0  0  0  0  0
   55.2604   53.7564   54.0462 C   0  0  0  0  0  0  0  0  0  0  0  0
   55.8825   53.1390   53.1927 O   0  0  0  0  0  0  0  0  0  0  0  0
   53.9084   54.0101   54.1631 N   0  0  0  0  0  0  0  0  0  0  0  0
   53.6430   54.7786   55.2801 C   0  0  0  0  0  0  0  0  0  0  0  0
   52.5747   55.1883   55.7113 O   0  0  0  0  0  0  0  0  0  0  0  0
   54.9325   55.0204   55.9220 C   0  0  0  0  0  0  0  0  0  0  0  0
   55.2304   55.7309   57.0702 C   0  0  0  0  0  0  0  0  0  0  0  0
   56.5619   55.7431   57.4710 C   0  0  0  0  0  0  0  0  0  0  0  0
   57.5384   55.0502   56.7534 C   0  0  0  0  0  0  0  0  0  0  0  0
   52.9101   53.3938   53.2920 C   0  0  2  0  0  0  0  0  0  0  0  0
   51.9916   54.3691   52.5661 C   0  0  0  0  0  0  0  0  0  0  0  0
   52.2060   55.5634   52.4298 O   0  0  0  0  0  0  0  0  0  0  0  0
   50.8895   53.7850   51.9863 N   0  0  0  0  0  0  0  0  0  0  0  0
   50.4883   52.4719   52.0602 C   0  0  0  0  0  0  0  0  0  0  0  0
   49.5826   52.0460   51.3625 O   0  0  0  0  0  0  0  0  0  0  0  0
   51.2693   51.5695   52.9871 C   0  0  0  0  0  0  0  0  0  0  0  0
   52.0571   52.3625   54.0161 C   0  0  0  0  0  0  0  0  0  0  0  0
   57.9611   53.7892   55.0400 H   0  0  0  0  0  0  0  0  0  0  0  0
   54.4646   56.2572   57.6316 H   0  0  0  0  0  0  0  0  0  0  0  0
   56.8452   56.2925   58.3634 H   0  0  0  0  0  0  0  0  0  0  0  0
   58.5674   55.0650   57.1004 H   0  0  0  0  0  0  0  0  0  0  0  0
   53.4687   52.8687   52.5148 H   0  0  0  0  0  0  0  0  0  0  0  0
   50.3161   54.3909   51.4145 H   0  0  0  0  0  0  0  0  0  0  0  0
   50.5684   50.8973   53.4920 H   0  0  0  0  0  0  0  0  0  0  0  0
   51.9412   50.9585   52.3747 H   0  0  0  0  0  0  0  0  0  0  0  0
   51.3696   52.8512   54.7178 H   0  0  0  0  0  0  0  0  0  0  0  0
   52.6847   51.6805   54.6010 H   0  0  0  0  0  0  0  0  0  0  0  0
  1 20  1  0  0  0  0
  1  2  1  0  0  0  0
  1 11  2  0  0  0  0
  2  3  1  0  0  0  0
  2  8  2  0  0  0  0
  3  4  2  0  0  0  0
  3  5  1  0  0  0  0
  5  6  1  0  0  0  0
 12  5  1  0  0  0  0
  6  7  2  0  0  0  0
  6  8  1  0  0  0  0
  8  9  1  0  0  0  0
  9 21  1  0  0  0  0
  9 10  2  0  0  0  0
 10 22  1  0  0  0  0
 10 11  1  0  0  0  0
 11 23  1  0  0  0  0
 12 24  1  0  0  0  0
 12 13  1  0  0  0  0
 12 19  1  0  0  0  0
 13 14  2  0  0  0  0
 13 15  1  0  0  0  0
 15 25  1  0  0  0  0
 15 16  1  0  0  0  0
 16 17  2  0  0  0  0
 16 18  1  0  0  0  0
 18 26  1  0  0  0  0
 18 27  1  0  0  0  0
 18 19  1  0  0  0  0
 19 28  1  0  0  0  0
 19 29  1  0  0  0  0
M  ZZC   1 c1
M  ZZC   2 c2
M  ZZC   3 c3
M  ZZC   4 o1
M  ZZC   5 n1
M  ZZC   6 c4
M  ZZC   7 o2
M  ZZC   8 c5
M  ZZC   9 c6
M  ZZC  10 c7
M  ZZC  11 c8
M  ZZC  12 c9
M  ZZC  13 c10
M  ZZC  14 o3
M  ZZC  15 n2
M  ZZC  16 c11
M  ZZC  17 o4
M  ZZC  18 c12
M  ZZC  19 c13
M  ZZC  20 h11
M  ZZC  21 h61
M  ZZC  22 h71
M  ZZC  23 h81
M  ZZC  24 h91
M  ZZC  25 h21
M  ZZC  26 h121
M  ZZC  27 h122
M  ZZC  28 h131
M  ZZC  29 h132
M  ZZM   1 37
M  ZZI   1 125
M  ZZM   2 37
M  ZZI   2 124
M  ZZM   3 3
M  ZZI   3 121
M  ZZM   4 7
M  ZZI   4 81
M  ZZM   5 10
M  ZZI   5 192
M  ZZM   6 3
M  ZZI   6 121
M  ZZM   7 7
M  ZZI   7 81
M  ZZM   8 37
M  ZZI   8 124
M  ZZM   9 37
M  ZZI   9 125
M  ZZM  10 37
M  ZZI  10 125
M  ZZM  11 37
M  ZZI  11 125
M  ZZM  12 1
M  ZZI  12 113
M  ZZM  13 3
M  ZZI  13 121
M  ZZM  14 7
M  ZZI  14 81
M  ZZM  15 10
M  ZZI  15 191
M  ZZM  16 3
M  ZZI  16 121
M  ZZM  17 7
M  ZZI  17 81
M  ZZM  18 1
M  ZZI  18 112
M  ZZM  19 1
M  ZZI  19 112
M  ZZM  20 5
M  ZZI  20 1
M  ZZM  21 5
M  ZZI  21 1
M  ZZM  22 5
M  ZZI  22 1
M  ZZM  23 5
M  ZZI  23 1
M  ZZM  24 5
M  ZZI  24 1
M  ZZM  25 28
M  ZZI  25 11
M  ZZM  26 5
M  ZZI  26 1
M  ZZM  27 5
M  ZZI  27 1
M  ZZM  28 5
M  ZZI  28 1
M  ZZM  29 5
M  ZZI  29 1
M  END
> <IX>
1

> <NAME>
Cereblon_5T8E_62.pdb

> <Score>
-13.744154

> <Natom>
29

> <Nflex>
1

> <Hbond>
-5.389847

> <Hphob>
-1.897008

> <VwInt>
-14.336379

> <Dsolv>
13.641446

> <SolEl>
4.211587

> <Eintl>
3.148002

> <RecConf>
ND

> <projPath>
Cereblon_maps/

> <NAME_>
Cereblon_5T8E_62.pdb

$$$$
