Cereblon_5EU1_4.pdb
  MOLSOFT 04032206243D

 29 31  0  0  1  0  0  0  0  0999 V2000
   79.0041   42.4886   42.6725 C   0  0  0  0  0  0  0  0  0  0  0  0
   78.1841   42.1955   41.5972 C   0  0  0  0  0  0  0  0  0  0  0  0
   77.2676   41.0769   41.4108 C   0  0  0  0  0  0  0  0  0  0  0  0
   77.0870   40.2165   42.2587 O   0  0  0  0  0  0  0  0  0  0  0  0
   76.7264   41.2203   40.1464 N   0  0  0  0  0  0  0  0  0  0  0  0
   77.2224   42.3478   39.5239 C   0  0  0  0  0  0  0  0  0  0  0  0
   76.9878   42.7657   38.3974 O   0  0  0  0  0  0  0  0  0  0  0  0
   78.1570   42.9592   40.4692 C   0  0  0  0  0  0  0  0  0  0  0  0
   78.9564   44.0751   40.3278 C   0  0  0  0  0  0  0  0  0  0  0  0
   79.7990   44.3838   41.3900 C   0  0  0  0  0  0  0  0  0  0  0  0
   79.8233   43.6040   42.5468 C   0  0  0  0  0  0  0  0  0  0  0  0
   75.7188   40.3651   39.5130 C   0  0  2  0  0  0  0  0  0  0  0  0
   74.3385   40.9331   39.8014 C   0  0  0  0  0  0  0  0  0  0  0  0
   74.1514   42.1193   40.0156 O   0  0  0  0  0  0  0  0  0  0  0  0
   73.2883   40.0510   39.7256 N   0  0  0  0  0  0  0  0  0  0  0  0
   73.3268   38.7053   39.4541 C   0  0  0  0  0  0  0  0  0  0  0  0
   72.3116   38.0308   39.3977 O   0  0  0  0  0  0  0  0  0  0  0  0
   74.6916   38.1245   39.1775 C   0  0  0  0  0  0  0  0  0  0  0  0
   75.7738   38.8942   39.9141 C   0  0  0  0  0  0  0  0  0  0  0  0
   79.0150   41.8726   43.5675 H   0  0  0  0  0  0  0  0  0  0  0  0
   78.9268   44.6771   39.4273 H   0  0  0  0  0  0  0  0  0  0  0  0
   80.4495   45.2479   41.3194 H   0  0  0  0  0  0  0  0  0  0  0  0
   80.4926   43.8706   43.3599 H   0  0  0  0  0  0  0  0  0  0  0  0
   75.8587   40.4536   38.4337 H   0  0  0  0  0  0  0  0  0  0  0  0
   72.3698   40.4446   39.8890 H   0  0  0  0  0  0  0  0  0  0  0  0
   74.6978   37.0786   39.5005 H   0  0  0  0  0  0  0  0  0  0  0  0
   74.8524   38.1469   38.0953 H   0  0  0  0  0  0  0  0  0  0  0  0
   76.7592   38.4725   39.6908 H   0  0  0  0  0  0  0  0  0  0  0  0
   75.6114   38.7738   40.9888 H   0  0  0  0  0  0  0  0  0  0  0  0
  1 20  1  0  0  0  0
  1  2  1  0  0  0  0
  1 11  2  0  0  0  0
  2  3  1  0  0  0  0
  2  8  2  0  0  0  0
  3  4  2  0  0  0  0
  3  5  1  0  0  0  0
  5  6  1  0  0  0  0
 12  5  1  0  0  0  0
  6  7  2  0  0  0  0
  6  8  1  0  0  0  0
  8  9  1  0  0  0  0
  9 21  1  0  0  0  0
  9 10  2  0  0  0  0
 10 22  1  0  0  0  0
 10 11  1  0  0  0  0
 11 23  1  0  0  0  0
 12 24  1  0  0  0  0
 12 13  1  0  0  0  0
 12 19  1  0  0  0  0
 13 14  2  0  0  0  0
 13 15  1  0  0  0  0
 15 25  1  0  0  0  0
 15 16  1  0  0  0  0
 16 17  2  0  0  0  0
 16 18  1  0  0  0  0
 18 26  1  0  0  0  0
 18 27  1  0  0  0  0
 18 19  1  0  0  0  0
 19 28  1  0  0  0  0
 19 29  1  0  0  0  0
M  ZZC   1 c1
M  ZZC   2 c2
M  ZZC   3 c3
M  ZZC   4 o1
M  ZZC   5 n1
M  ZZC   6 c4
M  ZZC   7 o2
M  ZZC   8 c5
M  ZZC   9 c6
M  ZZC  10 c7
M  ZZC  11 c8
M  ZZC  12 c9
M  ZZC  13 c10
M  ZZC  14 o3
M  ZZC  15 n2
M  ZZC  16 c11
M  ZZC  17 o4
M  ZZC  18 c12
M  ZZC  19 c13
M  ZZC  20 h11
M  ZZC  21 h61
M  ZZC  22 h71
M  ZZC  23 h81
M  ZZC  24 h91
M  ZZC  25 h21
M  ZZC  26 h121
M  ZZC  27 h122
M  ZZC  28 h131
M  ZZC  29 h132
M  ZZM   1 37
M  ZZI   1 125
M  ZZM   2 37
M  ZZI   2 124
M  ZZM   3 3
M  ZZI   3 121
M  ZZM   4 7
M  ZZI   4 81
M  ZZM   5 10
M  ZZI   5 192
M  ZZM   6 3
M  ZZI   6 121
M  ZZM   7 7
M  ZZI   7 81
M  ZZM   8 37
M  ZZI   8 124
M  ZZM   9 37
M  ZZI   9 125
M  ZZM  10 37
M  ZZI  10 125
M  ZZM  11 37
M  ZZI  11 125
M  ZZM  12 1
M  ZZI  12 113
M  ZZM  13 3
M  ZZI  13 121
M  ZZM  14 7
M  ZZI  14 81
M  ZZM  15 10
M  ZZI  15 191
M  ZZM  16 3
M  ZZI  16 121
M  ZZM  17 7
M  ZZI  17 81
M  ZZM  18 1
M  ZZI  18 112
M  ZZM  19 1
M  ZZI  19 112
M  ZZM  20 5
M  ZZI  20 1
M  ZZM  21 5
M  ZZI  21 1
M  ZZM  22 5
M  ZZI  22 1
M  ZZM  23 5
M  ZZI  23 1
M  ZZM  24 5
M  ZZI  24 1
M  ZZM  25 28
M  ZZI  25 11
M  ZZM  26 5
M  ZZI  26 1
M  ZZM  27 5
M  ZZI  27 1
M  ZZM  28 5
M  ZZI  28 1
M  ZZM  29 5
M  ZZI  29 1
M  END
> <IX>
1

> <NAME>
Cereblon_5EU1_4.pdb

> <Score>
-19.435326

> <Natom>
29

> <Nflex>
1

> <Hbond>
-3.372734

> <Hphob>
-3.545724

> <VwInt>
-22.700798

> <Dsolv>
12.090209

> <SolEl>
5.47056

> <Eintl>
1.493164

> <RecConf>
ND

> <projPath>
Cereblon_maps/

> <NAME_>
Cereblon_5EU1_4.pdb

$$$$
