Cereblon_3HLL_17.pdb
  MOLSOFT 04032206203D

 31 33  0  0  1  0  0  0  0  0999 V2000
   78.8154   41.6706   43.8056 N   0  0  0  0  0  0  0  0  0  0  0  0
   78.8935   42.4281   42.6273 C   0  0  0  0  0  0  0  0  0  0  0  0
   78.0916   42.1590   41.5313 C   0  0  0  0  0  0  0  0  0  0  0  0
   77.1698   41.0489   41.3264 C   0  0  0  0  0  0  0  0  0  0  0  0
   76.9919   40.1628   42.1489 O   0  0  0  0  0  0  0  0  0  0  0  0
   76.6279   41.2166   40.0673 N   0  0  0  0  0  0  0  0  0  0  0  0
   77.1549   42.3334   39.4502 C   0  0  0  0  0  0  0  0  0  0  0  0
   76.9485   42.7478   38.3170 O   0  0  0  0  0  0  0  0  0  0  0  0
   78.0882   42.9282   40.4076 C   0  0  0  0  0  0  0  0  0  0  0  0
   78.9050   44.0332   40.2839 C   0  0  0  0  0  0  0  0  0  0  0  0
   79.7307   44.3268   41.3652 C   0  0  0  0  0  0  0  0  0  0  0  0
   79.7151   43.5464   42.5229 C   0  0  0  0  0  0  0  0  0  0  0  0
   75.6127   40.3785   39.4257 C   0  0  2  0  0  0  0  0  0  0  0  0
   74.2412   40.9593   39.7243 C   0  0  0  0  0  0  0  0  0  0  0  0
   74.0728   42.1378   39.9893 O   0  0  0  0  0  0  0  0  0  0  0  0
   73.1786   40.0984   39.5949 N   0  0  0  0  0  0  0  0  0  0  0  0
   73.2022   38.7612   39.2794 C   0  0  0  0  0  0  0  0  0  0  0  0
   72.1752   38.1150   39.1525 O   0  0  0  0  0  0  0  0  0  0  0  0
   74.5658   38.1536   39.0502 C   0  0  0  0  0  0  0  0  0  0  0  0
   75.6407   38.9040   39.8165 C   0  0  0  0  0  0  0  0  0  0  0  0
   79.5462   41.7503   44.5096 H   0  0  0  0  0  0  0  0  0  0  0  0
   78.2558   40.8160   43.7952 H   0  0  0  0  0  0  0  0  0  0  0  0
   78.8987   44.6406   39.3865 H   0  0  0  0  0  0  0  0  0  0  0  0
   80.3889   45.1871   41.3151 H   0  0  0  0  0  0  0  0  0  0  0  0
   80.3571   43.8189   43.3551 H   0  0  0  0  0  0  0  0  0  0  0  0
   75.7537   40.4796   38.3485 H   0  0  0  0  0  0  0  0  0  0  0  0
   72.2634   40.5038   39.7464 H   0  0  0  0  0  0  0  0  0  0  0  0
   74.5418   37.1089   39.3760 H   0  0  0  0  0  0  0  0  0  0  0  0
   74.7657   38.1678   37.9743 H   0  0  0  0  0  0  0  0  0  0  0  0
   76.6249   38.4690   39.6152 H   0  0  0  0  0  0  0  0  0  0  0  0
   75.4517   38.7775   40.8865 H   0  0  0  0  0  0  0  0  0  0  0  0
  1  2  1  0  0  0  0
  1 21  1  0  0  0  0
  1 22  1  0  0  0  0
  2  3  1  0  0  0  0
  2 12  2  0  0  0  0
  3  9  2  0  0  0  0
  3  4  1  0  0  0  0
  4  5  2  0  0  0  0
  4  6  1  0  0  0  0
  6  7  1  0  0  0  0
 13  6  1  0  0  0  0
  7  8  2  0  0  0  0
  7  9  1  0  0  0  0
  9 10  1  0  0  0  0
 10 23  1  0  0  0  0
 10 11  2  0  0  0  0
 11 12  1  0  0  0  0
 11 24  1  0  0  0  0
 12 25  1  0  0  0  0
 13 26  1  0  0  0  0
 13 14  1  0  0  0  0
 13 20  1  0  0  0  0
 14 15  2  0  0  0  0
 14 16  1  0  0  0  0
 16 27  1  0  0  0  0
 16 17  1  0  0  0  0
 17 18  2  0  0  0  0
 17 19  1  0  0  0  0
 19 28  1  0  0  0  0
 19 29  1  0  0  0  0
 19 20  1  0  0  0  0
 20 30  1  0  0  0  0
 20 31  1  0  0  0  0
M  ZZC   1 n1
M  ZZC   2 c1
M  ZZC   3 c2
M  ZZC   4 c3
M  ZZC   5 o1
M  ZZC   6 n2
M  ZZC   7 c4
M  ZZC   8 o2
M  ZZC   9 c5
M  ZZC  10 c6
M  ZZC  11 c7
M  ZZC  12 c8
M  ZZC  13 c9
M  ZZC  14 c10
M  ZZC  15 o3
M  ZZC  16 n3
M  ZZC  17 c11
M  ZZC  18 o4
M  ZZC  19 c12
M  ZZC  20 c13
M  ZZC  21 h11
M  ZZC  22 h12
M  ZZC  23 h61
M  ZZC  24 h71
M  ZZC  25 h81
M  ZZC  26 h91
M  ZZC  27 h31
M  ZZC  28 h121
M  ZZC  29 h122
M  ZZC  30 h131
M  ZZC  31 h132
M  ZZM   1 40
M  ZZI   1 224
M  ZZM   2 37
M  ZZI   2 124
M  ZZM   3 37
M  ZZI   3 124
M  ZZM   4 3
M  ZZI   4 121
M  ZZM   5 7
M  ZZI   5 81
M  ZZM   6 10
M  ZZI   6 192
M  ZZM   7 3
M  ZZI   7 121
M  ZZM   8 7
M  ZZI   8 81
M  ZZM   9 37
M  ZZI   9 124
M  ZZM  10 37
M  ZZI  10 125
M  ZZM  11 37
M  ZZI  11 125
M  ZZM  12 37
M  ZZI  12 125
M  ZZM  13 1
M  ZZI  13 113
M  ZZM  14 3
M  ZZI  14 121
M  ZZM  15 7
M  ZZI  15 81
M  ZZM  16 10
M  ZZI  16 191
M  ZZM  17 3
M  ZZI  17 121
M  ZZM  18 7
M  ZZI  18 81
M  ZZM  19 1
M  ZZI  19 112
M  ZZM  20 1
M  ZZI  20 112
M  ZZM  21 28
M  ZZI  21 11
M  ZZM  22 28
M  ZZI  22 11
M  ZZM  23 5
M  ZZI  23 1
M  ZZM  24 5
M  ZZI  24 1
M  ZZM  25 5
M  ZZI  25 1
M  ZZM  26 5
M  ZZI  26 1
M  ZZM  27 28
M  ZZI  27 11
M  ZZM  28 5
M  ZZI  28 1
M  ZZM  29 5
M  ZZI  29 1
M  ZZM  30 5
M  ZZI  30 1
M  ZZM  31 5
M  ZZI  31 1
M  END
> <IX>
1

> <NAME>
Cereblon_3HLL_17.pdb

> <Score>
-18.760945

> <Natom>
31

> <Nflex>
1

> <Hbond>
-3.699457

> <Hphob>
-3.516071

> <VwInt>
-24.316645

> <Dsolv>
15.168783

> <SolEl>
6.364914

> <Eintl>
1.822773

> <RecConf>
ND

> <projPath>
Cereblon_maps/

> <NAME_>
Cereblon_3HLL_17.pdb

$$$$
