Cereblon_6YBK_5.pdb
  MOLSOFT 04032206303D

 31 33  0  0  1  0  0  0  0  0999 V2000
   78.8141   41.6784   43.8162 N   0  0  0  0  0  0  0  0  0  0  0  0
   78.9068   42.4231   42.6299 C   0  0  0  0  0  0  0  0  0  0  0  0
   78.1001   42.1575   41.5363 C   0  0  0  0  0  0  0  0  0  0  0  0
   77.1787   41.0472   41.3300 C   0  0  0  0  0  0  0  0  0  0  0  0
   76.9971   40.1649   42.1560 O   0  0  0  0  0  0  0  0  0  0  0  0
   76.6435   41.2113   40.0678 N   0  0  0  0  0  0  0  0  0  0  0  0
   77.1648   42.3317   39.4534 C   0  0  0  0  0  0  0  0  0  0  0  0
   76.9530   42.7537   38.3239 O   0  0  0  0  0  0  0  0  0  0  0  0
   78.0965   42.9271   40.4126 C   0  0  0  0  0  0  0  0  0  0  0  0
   78.9072   44.0370   40.2914 C   0  0  0  0  0  0  0  0  0  0  0  0
   79.7237   44.3372   41.3757 C   0  0  0  0  0  0  0  0  0  0  0  0
   79.7118   43.5540   42.5316 C   0  0  0  0  0  0  0  0  0  0  0  0
   75.6236   40.3753   39.4310 C   0  0  2  0  0  0  0  0  0  0  0  0
   74.2521   40.9539   39.7350 C   0  0  0  0  0  0  0  0  0  0  0  0
   74.0818   42.1336   39.9940 O   0  0  0  0  0  0  0  0  0  0  0  0
   73.1910   40.0892   39.6194 N   0  0  0  0  0  0  0  0  0  0  0  0
   73.2160   38.7514   39.3077 C   0  0  0  0  0  0  0  0  0  0  0  0
   72.1910   38.0988   39.1985 O   0  0  0  0  0  0  0  0  0  0  0  0
   74.5791   38.1520   39.0562 C   0  0  0  0  0  0  0  0  0  0  0  0
   75.6564   38.9007   39.8208 C   0  0  0  0  0  0  0  0  0  0  0  0
   79.5520   41.7643   44.5116 H   0  0  0  0  0  0  0  0  0  0  0  0
   78.3221   40.7844   43.7757 H   0  0  0  0  0  0  0  0  0  0  0  0
   78.8994   44.6451   39.3945 H   0  0  0  0  0  0  0  0  0  0  0  0
   80.3716   45.2056   41.3312 H   0  0  0  0  0  0  0  0  0  0  0  0
   80.3435   43.8365   43.3684 H   0  0  0  0  0  0  0  0  0  0  0  0
   75.7587   40.4749   38.3528 H   0  0  0  0  0  0  0  0  0  0  0  0
   72.2756   40.4915   39.7782 H   0  0  0  0  0  0  0  0  0  0  0  0
   74.5633   37.1042   39.3729 H   0  0  0  0  0  0  0  0  0  0  0  0
   74.7682   38.1770   37.9786 H   0  0  0  0  0  0  0  0  0  0  0  0
   75.4698   38.7735   40.8911 H   0  0  0  0  0  0  0  0  0  0  0  0
   76.6416   38.4697   39.6152 H   0  0  0  0  0  0  0  0  0  0  0  0
  1  2  1  0  0  0  0
  1 21  1  0  0  0  0
  1 22  1  0  0  0  0
  2  3  1  0  0  0  0
  2 12  2  0  0  0  0
  3  9  2  0  0  0  0
  3  4  1  0  0  0  0
  4  5  2  0  0  0  0
  4  6  1  0  0  0  0
  6  7  1  0  0  0  0
 13  6  1  0  0  0  0
  7  8  2  0  0  0  0
  7  9  1  0  0  0  0
  9 10  1  0  0  0  0
 10 23  1  0  0  0  0
 10 11  2  0  0  0  0
 11 12  1  0  0  0  0
 11 24  1  0  0  0  0
 12 25  1  0  0  0  0
 13 26  1  0  0  0  0
 13 14  1  0  0  0  0
 13 20  1  0  0  0  0
 14 15  2  0  0  0  0
 14 16  1  0  0  0  0
 16 27  1  0  0  0  0
 16 17  1  0  0  0  0
 17 18  2  0  0  0  0
 17 19  1  0  0  0  0
 19 28  1  0  0  0  0
 19 29  1  0  0  0  0
 19 20  1  0  0  0  0
 20 30  1  0  0  0  0
 20 31  1  0  0  0  0
M  ZZC   1 n1
M  ZZC   2 c1
M  ZZC   3 c2
M  ZZC   4 c3
M  ZZC   5 o1
M  ZZC   6 n2
M  ZZC   7 c4
M  ZZC   8 o2
M  ZZC   9 c5
M  ZZC  10 c6
M  ZZC  11 c7
M  ZZC  12 c8
M  ZZC  13 c9
M  ZZC  14 c10
M  ZZC  15 o3
M  ZZC  16 n3
M  ZZC  17 c11
M  ZZC  18 o4
M  ZZC  19 c12
M  ZZC  20 c13
M  ZZC  21 h11
M  ZZC  22 h12
M  ZZC  23 h61
M  ZZC  24 h71
M  ZZC  25 h81
M  ZZC  26 h91
M  ZZC  27 h31
M  ZZC  28 h121
M  ZZC  29 h122
M  ZZC  30 h131
M  ZZC  31 h132
M  ZZM   1 40
M  ZZI   1 224
M  ZZM   2 37
M  ZZI   2 124
M  ZZM   3 37
M  ZZI   3 124
M  ZZM   4 3
M  ZZI   4 121
M  ZZM   5 7
M  ZZI   5 81
M  ZZM   6 10
M  ZZI   6 192
M  ZZM   7 3
M  ZZI   7 121
M  ZZM   8 7
M  ZZI   8 81
M  ZZM   9 37
M  ZZI   9 124
M  ZZM  10 37
M  ZZI  10 125
M  ZZM  11 37
M  ZZI  11 125
M  ZZM  12 37
M  ZZI  12 125
M  ZZM  13 1
M  ZZI  13 113
M  ZZM  14 3
M  ZZI  14 121
M  ZZM  15 7
M  ZZI  15 81
M  ZZM  16 10
M  ZZI  16 191
M  ZZM  17 3
M  ZZI  17 121
M  ZZM  18 7
M  ZZI  18 81
M  ZZM  19 1
M  ZZI  19 112
M  ZZM  20 1
M  ZZI  20 112
M  ZZM  21 28
M  ZZI  21 11
M  ZZM  22 28
M  ZZI  22 11
M  ZZM  23 5
M  ZZI  23 1
M  ZZM  24 5
M  ZZI  24 1
M  ZZM  25 5
M  ZZI  25 1
M  ZZM  26 5
M  ZZI  26 1
M  ZZM  27 28
M  ZZI  27 11
M  ZZM  28 5
M  ZZI  28 1
M  ZZM  29 5
M  ZZI  29 1
M  ZZM  30 5
M  ZZI  30 1
M  ZZM  31 5
M  ZZI  31 1
M  END
> <IX>
1

> <NAME>
Cereblon_6YBK_5.pdb

> <Score>
-18.466358

> <Natom>
31

> <Nflex>
1

> <Hbond>
-3.702574

> <Hphob>
-3.544264

> <VwInt>
-24.30369

> <Dsolv>
15.139006

> <SolEl>
6.994835

> <Eintl>
1.681092

> <RecConf>
ND

> <projPath>
Cereblon_maps/

> <NAME_>
Cereblon_6YBK_5.pdb

$$$$
