Cereblon_3KRR_9.pdb
  MOLSOFT 04032206213D

 30 32  0  0  1  0  0  0  0  0999 V2000
   78.9586   42.3487   42.8089 C   0  0  0  0  0  0  0  0  0  0  0  0
   78.1531   42.0553   41.7209 C   0  0  0  0  0  0  0  0  0  0  0  0
   78.1612   42.8616   40.6136 C   0  0  0  0  0  0  0  0  0  0  0  0
   77.2318   42.3014   39.6254 C   0  0  0  0  0  0  0  0  0  0  0  0
   77.0143   42.7681   38.5147 O   0  0  0  0  0  0  0  0  0  0  0  0
   76.7065   41.1566   40.1931 N   0  0  0  0  0  0  0  0  0  0  0  0
   75.6918   40.3302   39.5345 C   0  0  2  0  0  0  0  0  0  0  0  0
   74.3096   40.9165   39.7940 C   0  0  0  0  0  0  0  0  0  0  0  0
   74.1237   42.1043   40.0017 O   0  0  0  0  0  0  0  0  0  0  0  0
   73.2533   40.0427   39.7101 N   0  0  0  0  0  0  0  0  0  0  0  0
   73.2830   38.6937   39.4565 C   0  0  0  0  0  0  0  0  0  0  0  0
   72.2620   38.0285   39.3951 O   0  0  0  0  0  0  0  0  0  0  0  0
   74.6454   38.0965   39.2045 C   0  0  0  0  0  0  0  0  0  0  0  0
   75.7283   38.8624   39.9433 C   0  0  0  0  0  0  0  0  0  0  0  0
   77.2293   40.9101   41.5271 C   0  0  0  0  0  0  0  0  0  0  0  0
   78.9671   43.9781   40.5062 C   0  0  0  0  0  0  0  0  0  0  0  0
   79.7871   44.2694   41.5874 C   0  0  0  0  0  0  0  0  0  0  0  0
   79.7814   43.4657   42.7254 C   0  0  0  0  0  0  0  0  0  0  0  0
   78.9582   41.7230   43.6969 H   0  0  0  0  0  0  0  0  0  0  0  0
   75.8554   40.4208   38.4585 H   0  0  0  0  0  0  0  0  0  0  0  0
   72.3366   40.4474   39.8540 H   0  0  0  0  0  0  0  0  0  0  0  0
   74.6379   37.0542   39.5387 H   0  0  0  0  0  0  0  0  0  0  0  0
   74.8221   38.1053   38.1243 H   0  0  0  0  0  0  0  0  0  0  0  0
   75.5717   38.7575   41.0217 H   0  0  0  0  0  0  0  0  0  0  0  0
   76.7096   38.4292   39.7231 H   0  0  0  0  0  0  0  0  0  0  0  0
   77.7718   39.9587   41.5400 H   0  0  0  0  0  0  0  0  0  0  0  0
   76.4195   40.9103   42.2596 H   0  0  0  0  0  0  0  0  0  0  0  0
   78.9554   44.5975   39.6167 H   0  0  0  0  0  0  0  0  0  0  0  0
   80.4345   45.1381   41.5492 H   0  0  0  0  0  0  0  0  0  0  0  0
   80.4304   43.7146   43.5599 H   0  0  0  0  0  0  0  0  0  0  0  0
  1 19  1  0  0  0  0
  1 18  2  0  0  0  0
  1  2  1  0  0  0  0
  2  3  2  0  0  0  0
  2 15  1  0  0  0  0
  3 16  1  0  0  0  0
  3  4  1  0  0  0  0
  4  6  1  0  0  0  0
  4  5  2  0  0  0  0
  6 15  1  0  0  0  0
  7  6  1  0  0  0  0
  7 20  1  0  0  0  0
  7  8  1  0  0  0  0
  7 14  1  0  0  0  0
  8  9  2  0  0  0  0
  8 10  1  0  0  0  0
 10 21  1  0  0  0  0
 10 11  1  0  0  0  0
 11 12  2  0  0  0  0
 11 13  1  0  0  0  0
 13 22  1  0  0  0  0
 13 23  1  0  0  0  0
 13 14  1  0  0  0  0
 14 24  1  0  0  0  0
 14 25  1  0  0  0  0
 15 26  1  0  0  0  0
 15 27  1  0  0  0  0
 16 17  2  0  0  0  0
 16 28  1  0  0  0  0
 17 18  1  0  0  0  0
 17 29  1  0  0  0  0
 18 30  1  0  0  0  0
M  ZZC   1 c1
M  ZZC   2 c2
M  ZZC   3 c3
M  ZZC   4 c4
M  ZZC   5 o1
M  ZZC   6 n1
M  ZZC   7 c5
M  ZZC   8 c6
M  ZZC   9 o2
M  ZZC  10 n2
M  ZZC  11 c7
M  ZZC  12 o3
M  ZZC  13 c8
M  ZZC  14 c9
M  ZZC  15 c10
M  ZZC  16 c11
M  ZZC  17 c12
M  ZZC  18 c13
M  ZZC  19 h11
M  ZZC  20 h51
M  ZZC  21 h21
M  ZZC  22 h81
M  ZZC  23 h82
M  ZZC  24 h91
M  ZZC  25 h92
M  ZZC  26 h101
M  ZZC  27 h102
M  ZZC  28 h111
M  ZZC  29 h121
M  ZZC  30 h131
M  ZZM   1 37
M  ZZI   1 125
M  ZZM   2 37
M  ZZI   2 124
M  ZZM   3 37
M  ZZI   3 124
M  ZZM   4 3
M  ZZI   4 121
M  ZZM   5 7
M  ZZI   5 81
M  ZZM   6 10
M  ZZI   6 192
M  ZZM   7 1
M  ZZI   7 113
M  ZZM   8 3
M  ZZI   8 121
M  ZZM   9 7
M  ZZI   9 81
M  ZZM  10 10
M  ZZI  10 191
M  ZZM  11 3
M  ZZI  11 121
M  ZZM  12 7
M  ZZI  12 81
M  ZZM  13 1
M  ZZI  13 112
M  ZZM  14 1
M  ZZI  14 112
M  ZZM  15 1
M  ZZI  15 112
M  ZZM  16 37
M  ZZI  16 125
M  ZZM  17 37
M  ZZI  17 125
M  ZZM  18 37
M  ZZI  18 125
M  ZZM  19 5
M  ZZI  19 1
M  ZZM  20 5
M  ZZI  20 1
M  ZZM  21 28
M  ZZI  21 11
M  ZZM  22 5
M  ZZI  22 1
M  ZZM  23 5
M  ZZI  23 1
M  ZZM  24 5
M  ZZI  24 1
M  ZZM  25 5
M  ZZI  25 1
M  ZZM  26 5
M  ZZI  26 1
M  ZZM  27 5
M  ZZI  27 1
M  ZZM  28 5
M  ZZI  28 1
M  ZZM  29 5
M  ZZI  29 1
M  ZZM  30 5
M  ZZI  30 1
M  END
> <IX>
1

> <NAME>
Cereblon_3KRR_9.pdb

> <Score>
-18.765938

> <Natom>
30

> <Nflex>
1

> <Hbond>
-3.269203

> <Hphob>
-3.930334

> <VwInt>
-21.071639

> <Dsolv>
10.998571

> <SolEl>
5.651526

> <Eintl>
1.051954

> <RecConf>
ND

> <projPath>
Cereblon_maps/

> <NAME_>
Cereblon_3KRR_9.pdb

$$$$
