Cereblon_5WN8_7.pdb
  MOLSOFT 04032206283D

 29 31  0  0  1  0  0  0  0  0999 V2000
   67.8107   58.9771    5.7232 C   0  0  0  0  0  0  0  0  0  0  0  0
   68.8313   59.3419    6.5817 C   0  0  0  0  0  0  0  0  0  0  0  0
   69.2157   60.6597    7.0924 C   0  0  0  0  0  0  0  0  0  0  0  0
   68.6932   61.7082    6.7392 O   0  0  0  0  0  0  0  0  0  0  0  0
   70.2600   60.4412    7.9676 N   0  0  0  0  0  0  0  0  0  0  0  0
   70.5952   59.1032    8.0166 C   0  0  0  0  0  0  0  0  0  0  0  0
   71.4623   58.5364    8.6652 O   0  0  0  0  0  0  0  0  0  0  0  0
   69.6842   58.4195    7.1092 C   0  0  0  0  0  0  0  0  0  0  0  0
   69.6220   57.0781    6.7888 C   0  0  0  0  0  0  0  0  0  0  0  0
   68.6101   56.6918    5.9235 C   0  0  0  0  0  0  0  0  0  0  0  0
   67.7041   57.6238    5.4210 C   0  0  0  0  0  0  0  0  0  0  0  0
   70.9625   61.5027    8.6891 C   0  0  2  0  0  0  0  0  0  0  0  0
   72.3318   61.7049    8.0466 C   0  0  0  0  0  0  0  0  0  0  0  0
   72.5297   61.5841    6.8460 O   0  0  0  0  0  0  0  0  0  0  0  0
   73.3381   62.1138    8.8912 N   0  0  0  0  0  0  0  0  0  0  0  0
   73.2610   62.4201   10.2290 C   0  0  0  0  0  0  0  0  0  0  0  0
   74.2345   62.7888   10.8658 O   0  0  0  0  0  0  0  0  0  0  0  0
   71.8880   62.3308   10.8463 C   0  0  0  0  0  0  0  0  0  0  0  0
   71.0895   61.2254   10.1853 C   0  0  0  0  0  0  0  0  0  0  0  0
   67.1187   59.7103    5.3195 H   0  0  0  0  0  0  0  0  0  0  0  0
   70.3272   56.3595    7.1919 H   0  0  0  0  0  0  0  0  0  0  0  0
   68.5070   55.6446    5.6564 H   0  0  0  0  0  0  0  0  0  0  0  0
   66.8956   57.2744    4.7866 H   0  0  0  0  0  0  0  0  0  0  0  0
   70.4074   62.4363    8.5404 H   0  0  0  0  0  0  0  0  0  0  0  0
   74.2505   62.2221    8.4672 H   0  0  0  0  0  0  0  0  0  0  0  0
   71.9959   62.1230   11.9156 H   0  0  0  0  0  0  0  0  0  0  0  0
   71.3879   63.2989   10.7352 H   0  0  0  0  0  0  0  0  0  0  0  0
   70.0968   61.1534   10.6400 H   0  0  0  0  0  0  0  0  0  0  0  0
   71.5917   60.2713   10.3750 H   0  0  0  0  0  0  0  0  0  0  0  0
  1 20  1  0  0  0  0
  1  2  1  0  0  0  0
  1 11  2  0  0  0  0
  2  3  1  0  0  0  0
  2  8  2  0  0  0  0
  3  4  2  0  0  0  0
  3  5  1  0  0  0  0
  5  6  1  0  0  0  0
 12  5  1  0  0  0  0
  6  7  2  0  0  0  0
  6  8  1  0  0  0  0
  8  9  1  0  0  0  0
  9 21  1  0  0  0  0
  9 10  2  0  0  0  0
 10 22  1  0  0  0  0
 10 11  1  0  0  0  0
 11 23  1  0  0  0  0
 12 24  1  0  0  0  0
 12 13  1  0  0  0  0
 12 19  1  0  0  0  0
 13 14  2  0  0  0  0
 13 15  1  0  0  0  0
 15 25  1  0  0  0  0
 15 16  1  0  0  0  0
 16 17  2  0  0  0  0
 16 18  1  0  0  0  0
 18 26  1  0  0  0  0
 18 27  1  0  0  0  0
 18 19  1  0  0  0  0
 19 28  1  0  0  0  0
 19 29  1  0  0  0  0
M  ZZC   1 c1
M  ZZC   2 c2
M  ZZC   3 c3
M  ZZC   4 o1
M  ZZC   5 n1
M  ZZC   6 c4
M  ZZC   7 o2
M  ZZC   8 c5
M  ZZC   9 c6
M  ZZC  10 c7
M  ZZC  11 c8
M  ZZC  12 c9
M  ZZC  13 c10
M  ZZC  14 o3
M  ZZC  15 n2
M  ZZC  16 c11
M  ZZC  17 o4
M  ZZC  18 c12
M  ZZC  19 c13
M  ZZC  20 h11
M  ZZC  21 h61
M  ZZC  22 h71
M  ZZC  23 h81
M  ZZC  24 h91
M  ZZC  25 h21
M  ZZC  26 h121
M  ZZC  27 h122
M  ZZC  28 h131
M  ZZC  29 h132
M  ZZM   1 37
M  ZZI   1 125
M  ZZM   2 37
M  ZZI   2 124
M  ZZM   3 3
M  ZZI   3 121
M  ZZM   4 7
M  ZZI   4 81
M  ZZM   5 10
M  ZZI   5 192
M  ZZM   6 3
M  ZZI   6 121
M  ZZM   7 7
M  ZZI   7 81
M  ZZM   8 37
M  ZZI   8 124
M  ZZM   9 37
M  ZZI   9 125
M  ZZM  10 37
M  ZZI  10 125
M  ZZM  11 37
M  ZZI  11 125
M  ZZM  12 1
M  ZZI  12 113
M  ZZM  13 3
M  ZZI  13 121
M  ZZM  14 7
M  ZZI  14 81
M  ZZM  15 10
M  ZZI  15 191
M  ZZM  16 3
M  ZZI  16 121
M  ZZM  17 7
M  ZZI  17 81
M  ZZM  18 1
M  ZZI  18 112
M  ZZM  19 1
M  ZZI  19 112
M  ZZM  20 5
M  ZZI  20 1
M  ZZM  21 5
M  ZZI  21 1
M  ZZM  22 5
M  ZZI  22 1
M  ZZM  23 5
M  ZZI  23 1
M  ZZM  24 5
M  ZZI  24 1
M  ZZM  25 28
M  ZZI  25 11
M  ZZM  26 5
M  ZZI  26 1
M  ZZM  27 5
M  ZZI  27 1
M  ZZM  28 5
M  ZZI  28 1
M  ZZM  29 5
M  ZZI  29 1
M  END
> <IX>
1

> <NAME>
Cereblon_5WN8_7.pdb

> <Score>
-8.544665

> <Natom>
29

> <Nflex>
1

> <Hbond>
-1.178078

> <Hphob>
-3.46864

> <VwInt>
-19.650195

> <Dsolv>
12.03608

> <SolEl>
9.570889

> <Eintl>
0.777013

> <RecConf>
ND

> <projPath>
Cereblon_maps/

> <NAME_>
Cereblon_5WN8_7.pdb

$$$$
