Cereblon_4IPF_10.pdb
  MOLSOFT 04032206223D

 29 31  0  0  1  0  0  0  0  0999 V2000
   79.0036   42.4900   42.6728 C   0  0  0  0  0  0  0  0  0  0  0  0
   78.1855   42.1952   41.5966 C   0  0  0  0  0  0  0  0  0  0  0  0
   77.2676   41.0774   41.4108 C   0  0  0  0  0  0  0  0  0  0  0  0
   77.0868   40.2170   42.2587 O   0  0  0  0  0  0  0  0  0  0  0  0
   76.7274   41.2201   40.1459 N   0  0  0  0  0  0  0  0  0  0  0  0
   77.2234   42.3475   39.5232 C   0  0  0  0  0  0  0  0  0  0  0  0
   76.9884   42.7652   38.3967 O   0  0  0  0  0  0  0  0  0  0  0  0
   78.1584   42.9586   40.4683 C   0  0  0  0  0  0  0  0  0  0  0  0
   78.9569   44.0752   40.3269 C   0  0  0  0  0  0  0  0  0  0  0  0
   79.7990   44.3844   41.3893 C   0  0  0  0  0  0  0  0  0  0  0  0
   79.8224   43.6057   42.5470 C   0  0  0  0  0  0  0  0  0  0  0  0
   75.7194   40.3652   39.5125 C   0  0  2  0  0  0  0  0  0  0  0  0
   74.3395   40.9338   39.8021 C   0  0  0  0  0  0  0  0  0  0  0  0
   74.1525   42.1199   40.0171 O   0  0  0  0  0  0  0  0  0  0  0  0
   73.2893   40.0518   39.7254 N   0  0  0  0  0  0  0  0  0  0  0  0
   73.3275   38.7058   39.4552 C   0  0  0  0  0  0  0  0  0  0  0  0
   72.3118   38.0321   39.3998 O   0  0  0  0  0  0  0  0  0  0  0  0
   74.6921   38.1245   39.1775 C   0  0  0  0  0  0  0  0  0  0  0  0
   75.7740   38.8947   39.9141 C   0  0  0  0  0  0  0  0  0  0  0  0
   79.0146   41.8742   43.5679 H   0  0  0  0  0  0  0  0  0  0  0  0
   78.9260   44.6771   39.4266 H   0  0  0  0  0  0  0  0  0  0  0  0
   80.4464   45.2509   41.3206 H   0  0  0  0  0  0  0  0  0  0  0  0
   80.4887   43.8746   43.3616 H   0  0  0  0  0  0  0  0  0  0  0  0
   75.8583   40.4533   38.4330 H   0  0  0  0  0  0  0  0  0  0  0  0
   72.3709   40.4457   39.8882 H   0  0  0  0  0  0  0  0  0  0  0  0
   74.6996   37.0788   39.5013 H   0  0  0  0  0  0  0  0  0  0  0  0
   74.8530   38.1467   38.0953 H   0  0  0  0  0  0  0  0  0  0  0  0
   75.6104   38.7753   40.9887 H   0  0  0  0  0  0  0  0  0  0  0  0
   76.7598   38.4731   39.6921 H   0  0  0  0  0  0  0  0  0  0  0  0
  1 20  1  0  0  0  0
  1  2  1  0  0  0  0
  1 11  2  0  0  0  0
  2  3  1  0  0  0  0
  2  8  2  0  0  0  0
  3  4  2  0  0  0  0
  3  5  1  0  0  0  0
  5  6  1  0  0  0  0
 12  5  1  0  0  0  0
  6  7  2  0  0  0  0
  6  8  1  0  0  0  0
  8  9  1  0  0  0  0
  9 21  1  0  0  0  0
  9 10  2  0  0  0  0
 10 22  1  0  0  0  0
 10 11  1  0  0  0  0
 11 23  1  0  0  0  0
 12 24  1  0  0  0  0
 12 13  1  0  0  0  0
 12 19  1  0  0  0  0
 13 14  2  0  0  0  0
 13 15  1  0  0  0  0
 15 25  1  0  0  0  0
 15 16  1  0  0  0  0
 16 17  2  0  0  0  0
 16 18  1  0  0  0  0
 18 26  1  0  0  0  0
 18 27  1  0  0  0  0
 18 19  1  0  0  0  0
 19 28  1  0  0  0  0
 19 29  1  0  0  0  0
M  ZZC   1 c1
M  ZZC   2 c2
M  ZZC   3 c3
M  ZZC   4 o1
M  ZZC   5 n1
M  ZZC   6 c4
M  ZZC   7 o2
M  ZZC   8 c5
M  ZZC   9 c6
M  ZZC  10 c7
M  ZZC  11 c8
M  ZZC  12 c9
M  ZZC  13 c10
M  ZZC  14 o3
M  ZZC  15 n2
M  ZZC  16 c11
M  ZZC  17 o4
M  ZZC  18 c12
M  ZZC  19 c13
M  ZZC  20 h11
M  ZZC  21 h61
M  ZZC  22 h71
M  ZZC  23 h81
M  ZZC  24 h91
M  ZZC  25 h21
M  ZZC  26 h121
M  ZZC  27 h122
M  ZZC  28 h131
M  ZZC  29 h132
M  ZZM   1 37
M  ZZI   1 125
M  ZZM   2 37
M  ZZI   2 124
M  ZZM   3 3
M  ZZI   3 121
M  ZZM   4 7
M  ZZI   4 81
M  ZZM   5 10
M  ZZI   5 192
M  ZZM   6 3
M  ZZI   6 121
M  ZZM   7 7
M  ZZI   7 81
M  ZZM   8 37
M  ZZI   8 124
M  ZZM   9 37
M  ZZI   9 125
M  ZZM  10 37
M  ZZI  10 125
M  ZZM  11 37
M  ZZI  11 125
M  ZZM  12 1
M  ZZI  12 113
M  ZZM  13 3
M  ZZI  13 121
M  ZZM  14 7
M  ZZI  14 81
M  ZZM  15 10
M  ZZI  15 191
M  ZZM  16 3
M  ZZI  16 121
M  ZZM  17 7
M  ZZI  17 81
M  ZZM  18 1
M  ZZI  18 112
M  ZZM  19 1
M  ZZI  19 112
M  ZZM  20 5
M  ZZI  20 1
M  ZZM  21 5
M  ZZI  21 1
M  ZZM  22 5
M  ZZI  22 1
M  ZZM  23 5
M  ZZI  23 1
M  ZZM  24 5
M  ZZI  24 1
M  ZZM  25 28
M  ZZI  25 11
M  ZZM  26 5
M  ZZI  26 1
M  ZZM  27 5
M  ZZI  27 1
M  ZZM  28 5
M  ZZI  28 1
M  ZZM  29 5
M  ZZI  29 1
M  END
> <IX>
1

> <NAME>
Cereblon_4IPF_10.pdb

> <Score>
-19.377451

> <Natom>
29

> <Nflex>
1

> <Hbond>
-3.370815

> <Hphob>
-3.532469

> <VwInt>
-22.689451

> <Dsolv>
11.999292

> <SolEl>
5.632592

> <Eintl>
1.483226

> <RecConf>
ND

> <projPath>
Cereblon_maps/

> <NAME_>
Cereblon_4IPF_10.pdb

$$$$
