Cereblon_6NUQ_16.pdb
  MOLSOFT 04032206283D

 29 31  0  0  1  0  0  0  0  0999 V2000
   76.3142   40.4900   40.6542 C   0  0  0  0  0  0  0  0  0  0  0  0
   75.3246   40.2823   39.7106 C   0  0  0  0  0  0  0  0  0  0  0  0
   74.4531   41.2466   39.0458 C   0  0  0  0  0  0  0  0  0  0  0  0
   74.4453   42.4317   39.3412 O   0  0  0  0  0  0  0  0  0  0  0  0
   73.6909   40.5315   38.1396 N   0  0  0  0  0  0  0  0  0  0  0  0
   73.9564   39.1808   38.2473 C   0  0  0  0  0  0  0  0  0  0  0  0
   73.4513   38.2395   37.6529 O   0  0  0  0  0  0  0  0  0  0  0  0
   75.0138   39.0419   39.2471 C   0  0  0  0  0  0  0  0  0  0  0  0
   75.6609   37.9075   39.7023 C   0  0  0  0  0  0  0  0  0  0  0  0
   76.6579   38.0915   40.6541 C   0  0  0  0  0  0  0  0  0  0  0  0
   76.9806   39.3650   41.1236 C   0  0  0  0  0  0  0  0  0  0  0  0
   72.6608   41.0697   37.2384 C   0  0  1  0  0  0  0  0  0  0  0  0
   71.3534   41.2745   37.9970 C   0  0  0  0  0  0  0  0  0  0  0  0
   71.0395   40.6196   38.9803 O   0  0  0  0  0  0  0  0  0  0  0  0
   70.4840   42.1955   37.4585 N   0  0  0  0  0  0  0  0  0  0  0  0
   70.6753   43.0434   36.3994 C   0  0  0  0  0  0  0  0  0  0  0  0
   69.8511   43.8986   36.1134 O   0  0  0  0  0  0  0  0  0  0  0  0
   71.9463   42.8320   35.6160 C   0  0  0  0  0  0  0  0  0  0  0  0
   73.0742   42.3498   36.5147 C   0  0  0  0  0  0  0  0  0  0  0  0
   76.5683   41.4841   41.0086 H   0  0  0  0  0  0  0  0  0  0  0  0
   75.4077   36.9193   39.3297 H   0  0  0  0  0  0  0  0  0  0  0  0
   77.1959   37.2300   41.0373 H   0  0  0  0  0  0  0  0  0  0  0  0
   77.7640   39.4808   41.8668 H   0  0  0  0  0  0  0  0  0  0  0  0
   72.4499   40.2990   36.4879 H   0  0  0  0  0  0  0  0  0  0  0  0
   69.6137   42.3252   37.9532 H   0  0  0  0  0  0  0  0  0  0  0  0
   71.7443   42.1140   34.8139 H   0  0  0  0  0  0  0  0  0  0  0  0
   72.2231   43.7844   35.1595 H   0  0  0  0  0  0  0  0  0  0  0  0
   73.9764   42.1737   35.9204 H   0  0  0  0  0  0  0  0  0  0  0  0
   73.3208   43.1423   37.2265 H   0  0  0  0  0  0  0  0  0  0  0  0
  1 20  1  0  0  0  0
  1  2  1  0  0  0  0
  1 11  2  0  0  0  0
  2  3  1  0  0  0  0
  2  8  2  0  0  0  0
  3  4  2  0  0  0  0
  3  5  1  0  0  0  0
  5  6  1  0  0  0  0
 12  5  1  0  0  0  0
  6  7  2  0  0  0  0
  6  8  1  0  0  0  0
  8  9  1  0  0  0  0
  9 21  1  0  0  0  0
  9 10  2  0  0  0  0
 10 22  1  0  0  0  0
 10 11  1  0  0  0  0
 11 23  1  0  0  0  0
 12 24  1  0  0  0  0
 12 13  1  0  0  0  0
 12 19  1  0  0  0  0
 13 14  2  0  0  0  0
 13 15  1  0  0  0  0
 15 25  1  0  0  0  0
 15 16  1  0  0  0  0
 16 17  2  0  0  0  0
 16 18  1  0  0  0  0
 18 26  1  0  0  0  0
 18 27  1  0  0  0  0
 18 19  1  0  0  0  0
 19 28  1  0  0  0  0
 19 29  1  0  0  0  0
M  ZZC   1 c1
M  ZZC   2 c2
M  ZZC   3 c3
M  ZZC   4 o1
M  ZZC   5 n1
M  ZZC   6 c4
M  ZZC   7 o2
M  ZZC   8 c5
M  ZZC   9 c6
M  ZZC  10 c7
M  ZZC  11 c8
M  ZZC  12 c9
M  ZZC  13 c10
M  ZZC  14 o3
M  ZZC  15 n2
M  ZZC  16 c11
M  ZZC  17 o4
M  ZZC  18 c12
M  ZZC  19 c13
M  ZZC  20 h11
M  ZZC  21 h61
M  ZZC  22 h71
M  ZZC  23 h81
M  ZZC  24 h91
M  ZZC  25 h21
M  ZZC  26 h121
M  ZZC  27 h122
M  ZZC  28 h131
M  ZZC  29 h132
M  ZZM   1 37
M  ZZI   1 125
M  ZZM   2 37
M  ZZI   2 124
M  ZZM   3 3
M  ZZI   3 121
M  ZZM   4 7
M  ZZI   4 81
M  ZZM   5 10
M  ZZI   5 192
M  ZZM   6 3
M  ZZI   6 121
M  ZZM   7 7
M  ZZI   7 81
M  ZZM   8 37
M  ZZI   8 124
M  ZZM   9 37
M  ZZI   9 125
M  ZZM  10 37
M  ZZI  10 125
M  ZZM  11 37
M  ZZI  11 125
M  ZZM  12 1
M  ZZI  12 113
M  ZZM  13 3
M  ZZI  13 121
M  ZZM  14 7
M  ZZI  14 81
M  ZZM  15 10
M  ZZI  15 191
M  ZZM  16 3
M  ZZI  16 121
M  ZZM  17 7
M  ZZI  17 81
M  ZZM  18 1
M  ZZI  18 112
M  ZZM  19 1
M  ZZI  19 112
M  ZZM  20 5
M  ZZI  20 1
M  ZZM  21 5
M  ZZI  21 1
M  ZZM  22 5
M  ZZI  22 1
M  ZZM  23 5
M  ZZI  23 1
M  ZZM  24 5
M  ZZI  24 1
M  ZZM  25 28
M  ZZI  25 11
M  ZZM  26 5
M  ZZI  26 1
M  ZZM  27 5
M  ZZI  27 1
M  ZZM  28 5
M  ZZI  28 1
M  ZZM  29 5
M  ZZI  29 1
M  END
> <IX>
1

> <NAME>
Cereblon_6NUQ_16.pdb

> <Score>
-20.621133

> <Natom>
29

> <Nflex>
1

> <Hbond>
-4.576999

> <Hphob>
-3.541994

> <VwInt>
-22.329879

> <Dsolv>
13.457128

> <SolEl>
7.008044

> <Eintl>
0.572557

> <RecConf>
ND

> <projPath>
Cereblon_maps/

> <NAME_>
Cereblon_6NUQ_16.pdb

$$$$
