Cereblon_5G0J_22.pdb
  MOLSOFT 04032206243D

 31 33  0  0  1  0  0  0  0  0999 V2000
   81.6202   53.0775   19.7049 N   0  0  0  0  0  0  0  0  0  0  0  0
   81.9333   54.4425   19.7376 C   0  0  0  0  0  0  0  0  0  0  0  0
   81.2317   55.3387   20.5256 C   0  0  0  0  0  0  0  0  0  0  0  0
   80.0306   55.1251   21.3284 C   0  0  0  0  0  0  0  0  0  0  0  0
   79.4235   54.0657   21.4008 O   0  0  0  0  0  0  0  0  0  0  0  0
   79.7609   56.3269   21.9462 N   0  0  0  0  0  0  0  0  0  0  0  0
   80.6737   57.2930   21.5772 C   0  0  0  0  0  0  0  0  0  0  0  0
   80.7477   58.4692   21.9015 O   0  0  0  0  0  0  0  0  0  0  0  0
   81.6118   56.6390   20.6683 C   0  0  0  0  0  0  0  0  0  0  0  0
   82.7283   57.1522   20.0353 C   0  0  0  0  0  0  0  0  0  0  0  0
   83.4613   56.2700   19.2515 C   0  0  0  0  0  0  0  0  0  0  0  0
   83.0791   54.9335   19.1245 C   0  0  0  0  0  0  0  0  0  0  0  0
   78.6174   56.5124   22.8391 C   0  0  2  0  0  0  0  0  0  0  0  0
   77.4674   57.1886   22.1173 C   0  0  0  0  0  0  0  0  0  0  0  0
   77.3323   57.1809   20.9027 O   0  0  0  0  0  0  0  0  0  0  0  0
   76.5172   57.7383   22.9452 N   0  0  0  0  0  0  0  0  0  0  0  0
   76.4985   57.7901   24.3184 C   0  0  0  0  0  0  0  0  0  0  0  0
   75.5311   58.2105   24.9322 O   0  0  0  0  0  0  0  0  0  0  0  0
   77.7202   57.2484   25.0225 C   0  0  0  0  0  0  0  0  0  0  0  0
   78.9341   57.2867   24.1146 C   0  0  0  0  0  0  0  0  0  0  0  0
   82.0406   52.5282   18.9605 H   0  0  0  0  0  0  0  0  0  0  0  0
   80.6532   52.8424   19.9281 H   0  0  0  0  0  0  0  0  0  0  0  0
   83.0268   58.1893   20.1543 H   0  0  0  0  0  0  0  0  0  0  0  0
   84.3551   56.6204   18.7426 H   0  0  0  0  0  0  0  0  0  0  0  0
   83.6893   54.2601   18.5313 H   0  0  0  0  0  0  0  0  0  0  0  0
   78.2515   55.5155   23.0998 H   0  0  0  0  0  0  0  0  0  0  0  0
   75.7239   58.1583   22.4794 H   0  0  0  0  0  0  0  0  0  0  0  0
   77.9066   57.8468   25.9200 H   0  0  0  0  0  0  0  0  0  0  0  0
   77.5103   56.2226   25.3349 H   0  0  0  0  0  0  0  0  0  0  0  0
   79.1860   58.3291   23.8918 H   0  0  0  0  0  0  0  0  0  0  0  0
   79.7970   56.8536   24.6286 H   0  0  0  0  0  0  0  0  0  0  0  0
  1  2  1  0  0  0  0
  1 21  1  0  0  0  0
  1 22  1  0  0  0  0
  2  3  1  0  0  0  0
  2 12  2  0  0  0  0
  3  9  2  0  0  0  0
  3  4  1  0  0  0  0
  4  5  2  0  0  0  0
  4  6  1  0  0  0  0
  6  7  1  0  0  0  0
 13  6  1  0  0  0  0
  7  8  2  0  0  0  0
  7  9  1  0  0  0  0
  9 10  1  0  0  0  0
 10 23  1  0  0  0  0
 10 11  2  0  0  0  0
 11 12  1  0  0  0  0
 11 24  1  0  0  0  0
 12 25  1  0  0  0  0
 13 26  1  0  0  0  0
 13 14  1  0  0  0  0
 13 20  1  0  0  0  0
 14 15  2  0  0  0  0
 14 16  1  0  0  0  0
 16 27  1  0  0  0  0
 16 17  1  0  0  0  0
 17 18  2  0  0  0  0
 17 19  1  0  0  0  0
 19 28  1  0  0  0  0
 19 29  1  0  0  0  0
 19 20  1  0  0  0  0
 20 30  1  0  0  0  0
 20 31  1  0  0  0  0
M  ZZC   1 n1
M  ZZC   2 c1
M  ZZC   3 c2
M  ZZC   4 c3
M  ZZC   5 o1
M  ZZC   6 n2
M  ZZC   7 c4
M  ZZC   8 o2
M  ZZC   9 c5
M  ZZC  10 c6
M  ZZC  11 c7
M  ZZC  12 c8
M  ZZC  13 c9
M  ZZC  14 c10
M  ZZC  15 o3
M  ZZC  16 n3
M  ZZC  17 c11
M  ZZC  18 o4
M  ZZC  19 c12
M  ZZC  20 c13
M  ZZC  21 h11
M  ZZC  22 h12
M  ZZC  23 h61
M  ZZC  24 h71
M  ZZC  25 h81
M  ZZC  26 h91
M  ZZC  27 h31
M  ZZC  28 h121
M  ZZC  29 h122
M  ZZC  30 h131
M  ZZC  31 h132
M  ZZM   1 40
M  ZZI   1 224
M  ZZM   2 37
M  ZZI   2 124
M  ZZM   3 37
M  ZZI   3 124
M  ZZM   4 3
M  ZZI   4 121
M  ZZM   5 7
M  ZZI   5 81
M  ZZM   6 10
M  ZZI   6 192
M  ZZM   7 3
M  ZZI   7 121
M  ZZM   8 7
M  ZZI   8 81
M  ZZM   9 37
M  ZZI   9 124
M  ZZM  10 37
M  ZZI  10 125
M  ZZM  11 37
M  ZZI  11 125
M  ZZM  12 37
M  ZZI  12 125
M  ZZM  13 1
M  ZZI  13 113
M  ZZM  14 3
M  ZZI  14 121
M  ZZM  15 7
M  ZZI  15 81
M  ZZM  16 10
M  ZZI  16 191
M  ZZM  17 3
M  ZZI  17 121
M  ZZM  18 7
M  ZZI  18 81
M  ZZM  19 1
M  ZZI  19 112
M  ZZM  20 1
M  ZZI  20 112
M  ZZM  21 28
M  ZZI  21 11
M  ZZM  22 28
M  ZZI  22 11
M  ZZM  23 5
M  ZZI  23 1
M  ZZM  24 5
M  ZZI  24 1
M  ZZM  25 5
M  ZZI  25 1
M  ZZM  26 5
M  ZZI  26 1
M  ZZM  27 28
M  ZZI  27 11
M  ZZM  28 5
M  ZZI  28 1
M  ZZM  29 5
M  ZZI  29 1
M  ZZM  30 5
M  ZZI  30 1
M  ZZM  31 5
M  ZZI  31 1
M  END
> <IX>
1

> <NAME>
Cereblon_5G0J_22.pdb

> <Score>
-23.142258

> <Natom>
31

> <Nflex>
1

> <Hbond>
-4.445875

> <Hphob>
-3.308845

> <VwInt>
-24.588849

> <Dsolv>
13.94717

> <SolEl>
5.063349

> <Eintl>
0.848991

> <RecConf>
ND

> <projPath>
Cereblon_maps/

> <NAME_>
Cereblon_5G0J_22.pdb

$$$$
