Cereblon_2GQG_28.pdb
  MOLSOFT 04032206203D

 30 32  0  0  1  0  0  0  0  0999 V2000
   76.5810   38.0513   40.6845 C   0  0  0  0  0  0  0  0  0  0  0  0
   75.8495   39.0736   40.0987 C   0  0  0  0  0  0  0  0  0  0  0  0
   76.0543   40.3675   40.4881 C   0  0  0  0  0  0  0  0  0  0  0  0
   75.1406   41.2148   39.7223 C   0  0  0  0  0  0  0  0  0  0  0  0
   75.0163   42.4170   39.8770 O   0  0  0  0  0  0  0  0  0  0  0  0
   74.4922   40.3984   38.8168 N   0  0  0  0  0  0  0  0  0  0  0  0
   73.4611   40.8343   37.8666 C   0  0  2  0  0  0  0  0  0  0  0  0
   73.9169   42.0708   37.0828 C   0  0  0  0  0  0  0  0  0  0  0  0
   75.0885   42.3031   36.8184 O   0  0  0  0  0  0  0  0  0  0  0  0
   72.9152   42.8934   36.6211 N   0  0  0  0  0  0  0  0  0  0  0  0
   71.5564   42.7591   36.7710 C   0  0  0  0  0  0  0  0  0  0  0  0
   70.7653   43.5648   36.3049 O   0  0  0  0  0  0  0  0  0  0  0  0
   71.0963   41.5283   37.5125 C   0  0  0  0  0  0  0  0  0  0  0  0
   72.1196   41.0798   38.5418 C   0  0  0  0  0  0  0  0  0  0  0  0
   74.8022   38.9994   39.0432 C   0  0  0  0  0  0  0  0  0  0  0  0
   76.9761   40.7336   41.4520 C   0  0  0  0  0  0  0  0  0  0  0  0
   77.7052   39.7145   42.0429 C   0  0  0  0  0  0  0  0  0  0  0  0
   77.5086   38.3904   41.6626 C   0  0  0  0  0  0  0  0  0  0  0  0
   76.4295   37.0150   40.3989 H   0  0  0  0  0  0  0  0  0  0  0  0
   73.3508   40.0314   37.1284 H   0  0  0  0  0  0  0  0  0  0  0  0
   73.2193   43.7078   36.1057 H   0  0  0  0  0  0  0  0  0  0  0  0
   70.1495   41.7581   38.0067 H   0  0  0  0  0  0  0  0  0  0  0  0
   70.9095   40.7393   36.7767 H   0  0  0  0  0  0  0  0  0  0  0  0
   72.2197   41.8293   39.3332 H   0  0  0  0  0  0  0  0  0  0  0  0
   71.7710   40.1643   39.0309 H   0  0  0  0  0  0  0  0  0  0  0  0
   75.1559   38.5419   38.1180 H   0  0  0  0  0  0  0  0  0  0  0  0
   73.9067   38.4844   39.4075 H   0  0  0  0  0  0  0  0  0  0  0  0
   77.1322   41.7709   41.7317 H   0  0  0  0  0  0  0  0  0  0  0  0
   78.4319   39.9530   42.8135 H   0  0  0  0  0  0  0  0  0  0  0  0
   78.0915   37.6090   42.1398 H   0  0  0  0  0  0  0  0  0  0  0  0
  1 19  1  0  0  0  0
  1 18  2  0  0  0  0
  1  2  1  0  0  0  0
  2  3  2  0  0  0  0
  2 15  1  0  0  0  0
  3 16  1  0  0  0  0
  3  4  1  0  0  0  0
  4  6  1  0  0  0  0
  4  5  2  0  0  0  0
  6 15  1  0  0  0  0
  7  6  1  0  0  0  0
  7 20  1  0  0  0  0
  7  8  1  0  0  0  0
  7 14  1  0  0  0  0
  8  9  2  0  0  0  0
  8 10  1  0  0  0  0
 10 21  1  0  0  0  0
 10 11  1  0  0  0  0
 11 12  2  0  0  0  0
 11 13  1  0  0  0  0
 13 22  1  0  0  0  0
 13 23  1  0  0  0  0
 13 14  1  0  0  0  0
 14 24  1  0  0  0  0
 14 25  1  0  0  0  0
 15 26  1  0  0  0  0
 15 27  1  0  0  0  0
 16 17  2  0  0  0  0
 16 28  1  0  0  0  0
 17 18  1  0  0  0  0
 17 29  1  0  0  0  0
 18 30  1  0  0  0  0
M  ZZC   1 c1
M  ZZC   2 c2
M  ZZC   3 c3
M  ZZC   4 c4
M  ZZC   5 o1
M  ZZC   6 n1
M  ZZC   7 c5
M  ZZC   8 c6
M  ZZC   9 o2
M  ZZC  10 n2
M  ZZC  11 c7
M  ZZC  12 o3
M  ZZC  13 c8
M  ZZC  14 c9
M  ZZC  15 c10
M  ZZC  16 c11
M  ZZC  17 c12
M  ZZC  18 c13
M  ZZC  19 h11
M  ZZC  20 h51
M  ZZC  21 h21
M  ZZC  22 h81
M  ZZC  23 h82
M  ZZC  24 h91
M  ZZC  25 h92
M  ZZC  26 h101
M  ZZC  27 h102
M  ZZC  28 h111
M  ZZC  29 h121
M  ZZC  30 h131
M  ZZM   1 37
M  ZZI   1 125
M  ZZM   2 37
M  ZZI   2 124
M  ZZM   3 37
M  ZZI   3 124
M  ZZM   4 3
M  ZZI   4 121
M  ZZM   5 7
M  ZZI   5 81
M  ZZM   6 10
M  ZZI   6 192
M  ZZM   7 1
M  ZZI   7 113
M  ZZM   8 3
M  ZZI   8 121
M  ZZM   9 7
M  ZZI   9 81
M  ZZM  10 10
M  ZZI  10 191
M  ZZM  11 3
M  ZZI  11 121
M  ZZM  12 7
M  ZZI  12 81
M  ZZM  13 1
M  ZZI  13 112
M  ZZM  14 1
M  ZZI  14 112
M  ZZM  15 1
M  ZZI  15 112
M  ZZM  16 37
M  ZZI  16 125
M  ZZM  17 37
M  ZZI  17 125
M  ZZM  18 37
M  ZZI  18 125
M  ZZM  19 5
M  ZZI  19 1
M  ZZM  20 5
M  ZZI  20 1
M  ZZM  21 28
M  ZZI  21 11
M  ZZM  22 5
M  ZZI  22 1
M  ZZM  23 5
M  ZZI  23 1
M  ZZM  24 5
M  ZZI  24 1
M  ZZM  25 5
M  ZZI  25 1
M  ZZM  26 5
M  ZZI  26 1
M  ZZM  27 5
M  ZZI  27 1
M  ZZM  28 5
M  ZZI  28 1
M  ZZM  29 5
M  ZZI  29 1
M  ZZM  30 5
M  ZZI  30 1
M  END
> <IX>
1

> <NAME>
Cereblon_2GQG_28.pdb

> <Score>
-16.76185

> <Natom>
30

> <Nflex>
1

> <Hbond>
-4.507696

> <Hphob>
-3.571488

> <VwInt>
-20.485225

> <Dsolv>
14.343475

> <SolEl>
6.029886

> <Eintl>
3.639019

> <RecConf>
ND

> <projPath>
Cereblon_maps/

> <NAME_>
Cereblon_2GQG_28.pdb

$$$$
