Cereblon_6C7R_4.pdb
  MOLSOFT 04032206283D

 31 33  0  0  1  0  0  0  0  0999 V2000
   78.8168   41.6725   43.8034 N   0  0  0  0  0  0  0  0  0  0  0  0
   78.8945   42.4296   42.6246 C   0  0  0  0  0  0  0  0  0  0  0  0
   78.0926   42.1600   41.5291 C   0  0  0  0  0  0  0  0  0  0  0  0
   77.1697   41.0511   41.3243 C   0  0  0  0  0  0  0  0  0  0  0  0
   76.9911   40.1668   42.1486 O   0  0  0  0  0  0  0  0  0  0  0  0
   76.6293   41.2194   40.0650 N   0  0  0  0  0  0  0  0  0  0  0  0
   77.1581   42.3345   39.4474 C   0  0  0  0  0  0  0  0  0  0  0  0
   76.9529   42.7508   38.3147 O   0  0  0  0  0  0  0  0  0  0  0  0
   78.0902   42.9287   40.4052 C   0  0  0  0  0  0  0  0  0  0  0  0
   78.9074   44.0333   40.2813 C   0  0  0  0  0  0  0  0  0  0  0  0
   79.7316   44.3282   41.3615 C   0  0  0  0  0  0  0  0  0  0  0  0
   79.7162   43.5477   42.5192 C   0  0  0  0  0  0  0  0  0  0  0  0
   75.6121   40.3814   39.4265 C   0  0  2  0  0  0  0  0  0  0  0  0
   74.2416   40.9641   39.7247 C   0  0  0  0  0  0  0  0  0  0  0  0
   74.0743   42.1431   39.9886 O   0  0  0  0  0  0  0  0  0  0  0  0
   73.1786   40.1044   39.5960 N   0  0  0  0  0  0  0  0  0  0  0  0
   73.2009   38.7673   39.2815 C   0  0  0  0  0  0  0  0  0  0  0  0
   72.1739   38.1214   39.1534 O   0  0  0  0  0  0  0  0  0  0  0  0
   74.5643   38.1577   39.0546 C   0  0  0  0  0  0  0  0  0  0  0  0
   75.6398   38.9076   39.8209 C   0  0  0  0  0  0  0  0  0  0  0  0
   79.5456   41.7558   44.5091 H   0  0  0  0  0  0  0  0  0  0  0  0
   78.2595   40.8164   43.7930 H   0  0  0  0  0  0  0  0  0  0  0  0
   78.9018   44.6401   39.3835 H   0  0  0  0  0  0  0  0  0  0  0  0
   80.3899   45.1884   41.3112 H   0  0  0  0  0  0  0  0  0  0  0  0
   80.3587   43.8211   43.3507 H   0  0  0  0  0  0  0  0  0  0  0  0
   75.7512   40.4780   38.3486 H   0  0  0  0  0  0  0  0  0  0  0  0
   72.2634   40.5104   39.7470 H   0  0  0  0  0  0  0  0  0  0  0  0
   74.5387   37.1133   39.3815 H   0  0  0  0  0  0  0  0  0  0  0  0
   74.7652   38.1704   37.9789 H   0  0  0  0  0  0  0  0  0  0  0  0
   75.4498   38.7841   40.8910 H   0  0  0  0  0  0  0  0  0  0  0  0
   76.6245   38.4746   39.6173 H   0  0  0  0  0  0  0  0  0  0  0  0
  1  2  1  0  0  0  0
  1 21  1  0  0  0  0
  1 22  1  0  0  0  0
  2  3  1  0  0  0  0
  2 12  2  0  0  0  0
  3  9  2  0  0  0  0
  3  4  1  0  0  0  0
  4  5  2  0  0  0  0
  4  6  1  0  0  0  0
  6  7  1  0  0  0  0
 13  6  1  0  0  0  0
  7  8  2  0  0  0  0
  7  9  1  0  0  0  0
  9 10  1  0  0  0  0
 10 23  1  0  0  0  0
 10 11  2  0  0  0  0
 11 12  1  0  0  0  0
 11 24  1  0  0  0  0
 12 25  1  0  0  0  0
 13 26  1  0  0  0  0
 13 14  1  0  0  0  0
 13 20  1  0  0  0  0
 14 15  2  0  0  0  0
 14 16  1  0  0  0  0
 16 27  1  0  0  0  0
 16 17  1  0  0  0  0
 17 18  2  0  0  0  0
 17 19  1  0  0  0  0
 19 28  1  0  0  0  0
 19 29  1  0  0  0  0
 19 20  1  0  0  0  0
 20 30  1  0  0  0  0
 20 31  1  0  0  0  0
M  ZZC   1 n1
M  ZZC   2 c1
M  ZZC   3 c2
M  ZZC   4 c3
M  ZZC   5 o1
M  ZZC   6 n2
M  ZZC   7 c4
M  ZZC   8 o2
M  ZZC   9 c5
M  ZZC  10 c6
M  ZZC  11 c7
M  ZZC  12 c8
M  ZZC  13 c9
M  ZZC  14 c10
M  ZZC  15 o3
M  ZZC  16 n3
M  ZZC  17 c11
M  ZZC  18 o4
M  ZZC  19 c12
M  ZZC  20 c13
M  ZZC  21 h11
M  ZZC  22 h12
M  ZZC  23 h61
M  ZZC  24 h71
M  ZZC  25 h81
M  ZZC  26 h91
M  ZZC  27 h31
M  ZZC  28 h121
M  ZZC  29 h122
M  ZZC  30 h131
M  ZZC  31 h132
M  ZZM   1 40
M  ZZI   1 224
M  ZZM   2 37
M  ZZI   2 124
M  ZZM   3 37
M  ZZI   3 124
M  ZZM   4 3
M  ZZI   4 121
M  ZZM   5 7
M  ZZI   5 81
M  ZZM   6 10
M  ZZI   6 192
M  ZZM   7 3
M  ZZI   7 121
M  ZZM   8 7
M  ZZI   8 81
M  ZZM   9 37
M  ZZI   9 124
M  ZZM  10 37
M  ZZI  10 125
M  ZZM  11 37
M  ZZI  11 125
M  ZZM  12 37
M  ZZI  12 125
M  ZZM  13 1
M  ZZI  13 113
M  ZZM  14 3
M  ZZI  14 121
M  ZZM  15 7
M  ZZI  15 81
M  ZZM  16 10
M  ZZI  16 191
M  ZZM  17 3
M  ZZI  17 121
M  ZZM  18 7
M  ZZI  18 81
M  ZZM  19 1
M  ZZI  19 112
M  ZZM  20 1
M  ZZI  20 112
M  ZZM  21 28
M  ZZI  21 11
M  ZZM  22 28
M  ZZI  22 11
M  ZZM  23 5
M  ZZI  23 1
M  ZZM  24 5
M  ZZI  24 1
M  ZZM  25 5
M  ZZI  25 1
M  ZZM  26 5
M  ZZI  26 1
M  ZZM  27 28
M  ZZI  27 11
M  ZZM  28 5
M  ZZI  28 1
M  ZZM  29 5
M  ZZI  29 1
M  ZZM  30 5
M  ZZI  30 1
M  ZZM  31 5
M  ZZI  31 1
M  END
> <IX>
1

> <NAME>
Cereblon_6C7R_4.pdb

> <Score>
-18.86003

> <Natom>
31

> <Nflex>
1

> <Hbond>
-3.619921

> <Hphob>
-3.595811

> <VwInt>
-24.447972

> <Dsolv>
15.152681

> <SolEl>
6.229937

> <Eintl>
1.798776

> <RecConf>
ND

> <projPath>
Cereblon_maps/

> <NAME_>
Cereblon_6C7R_4.pdb

$$$$
