Cereblon_2VTI_18.pdb
  MOLSOFT 04032206203D

 29 31  0  0  1  0  0  0  0  0999 V2000
   79.0005   42.4863   42.6739 C   0  0  0  0  0  0  0  0  0  0  0  0
   78.1823   42.1923   41.5977 C   0  0  0  0  0  0  0  0  0  0  0  0
   77.2663   41.0734   41.4101 C   0  0  0  0  0  0  0  0  0  0  0  0
   77.0882   40.2105   42.2561 O   0  0  0  0  0  0  0  0  0  0  0  0
   76.7244   41.2177   40.1461 N   0  0  0  0  0  0  0  0  0  0  0  0
   77.2221   42.3446   39.5234 C   0  0  0  0  0  0  0  0  0  0  0  0
   76.9877   42.7642   38.3974 O   0  0  0  0  0  0  0  0  0  0  0  0
   78.1556   42.9561   40.4699 C   0  0  0  0  0  0  0  0  0  0  0  0
   78.9551   44.0720   40.3291 C   0  0  0  0  0  0  0  0  0  0  0  0
   79.7959   44.3817   41.3923 C   0  0  0  0  0  0  0  0  0  0  0  0
   79.8195   43.6022   42.5492 C   0  0  0  0  0  0  0  0  0  0  0  0
   75.7152   40.3645   39.5122 C   0  0  2  0  0  0  0  0  0  0  0  0
   74.3355   40.9333   39.8018 C   0  0  0  0  0  0  0  0  0  0  0  0
   74.1491   42.1198   40.0153 O   0  0  0  0  0  0  0  0  0  0  0  0
   73.2850   40.0514   39.7282 N   0  0  0  0  0  0  0  0  0  0  0  0
   73.3223   38.7074   39.4476 C   0  0  0  0  0  0  0  0  0  0  0  0
   72.3060   38.0357   39.3801 O   0  0  0  0  0  0  0  0  0  0  0  0
   74.6873   38.1257   39.1724 C   0  0  0  0  0  0  0  0  0  0  0  0
   75.7685   38.8935   39.9126 C   0  0  0  0  0  0  0  0  0  0  0  0
   79.0099   41.8712   43.5693 H   0  0  0  0  0  0  0  0  0  0  0  0
   78.9261   44.6735   39.4283 H   0  0  0  0  0  0  0  0  0  0  0  0
   80.4444   45.2475   41.3233 H   0  0  0  0  0  0  0  0  0  0  0  0
   80.4863   43.8694   43.3640 H   0  0  0  0  0  0  0  0  0  0  0  0
   75.8550   40.4539   38.4328 H   0  0  0  0  0  0  0  0  0  0  0  0
   72.3667   40.4453   39.8914 H   0  0  0  0  0  0  0  0  0  0  0  0
   74.6922   37.0796   39.4951 H   0  0  0  0  0  0  0  0  0  0  0  0
   74.8506   38.1491   38.0906 H   0  0  0  0  0  0  0  0  0  0  0  0
   75.6034   38.7736   40.9870 H   0  0  0  0  0  0  0  0  0  0  0  0
   76.7541   38.4712   39.6908 H   0  0  0  0  0  0  0  0  0  0  0  0
  1 20  1  0  0  0  0
  1  2  1  0  0  0  0
  1 11  2  0  0  0  0
  2  3  1  0  0  0  0
  2  8  2  0  0  0  0
  3  4  2  0  0  0  0
  3  5  1  0  0  0  0
  5  6  1  0  0  0  0
 12  5  1  0  0  0  0
  6  7  2  0  0  0  0
  6  8  1  0  0  0  0
  8  9  1  0  0  0  0
  9 21  1  0  0  0  0
  9 10  2  0  0  0  0
 10 22  1  0  0  0  0
 10 11  1  0  0  0  0
 11 23  1  0  0  0  0
 12 24  1  0  0  0  0
 12 13  1  0  0  0  0
 12 19  1  0  0  0  0
 13 14  2  0  0  0  0
 13 15  1  0  0  0  0
 15 25  1  0  0  0  0
 15 16  1  0  0  0  0
 16 17  2  0  0  0  0
 16 18  1  0  0  0  0
 18 26  1  0  0  0  0
 18 27  1  0  0  0  0
 18 19  1  0  0  0  0
 19 28  1  0  0  0  0
 19 29  1  0  0  0  0
M  ZZC   1 c1
M  ZZC   2 c2
M  ZZC   3 c3
M  ZZC   4 o1
M  ZZC   5 n1
M  ZZC   6 c4
M  ZZC   7 o2
M  ZZC   8 c5
M  ZZC   9 c6
M  ZZC  10 c7
M  ZZC  11 c8
M  ZZC  12 c9
M  ZZC  13 c10
M  ZZC  14 o3
M  ZZC  15 n2
M  ZZC  16 c11
M  ZZC  17 o4
M  ZZC  18 c12
M  ZZC  19 c13
M  ZZC  20 h11
M  ZZC  21 h61
M  ZZC  22 h71
M  ZZC  23 h81
M  ZZC  24 h91
M  ZZC  25 h21
M  ZZC  26 h121
M  ZZC  27 h122
M  ZZC  28 h131
M  ZZC  29 h132
M  ZZM   1 37
M  ZZI   1 125
M  ZZM   2 37
M  ZZI   2 124
M  ZZM   3 3
M  ZZI   3 121
M  ZZM   4 7
M  ZZI   4 81
M  ZZM   5 10
M  ZZI   5 192
M  ZZM   6 3
M  ZZI   6 121
M  ZZM   7 7
M  ZZI   7 81
M  ZZM   8 37
M  ZZI   8 124
M  ZZM   9 37
M  ZZI   9 125
M  ZZM  10 37
M  ZZI  10 125
M  ZZM  11 37
M  ZZI  11 125
M  ZZM  12 1
M  ZZI  12 113
M  ZZM  13 3
M  ZZI  13 121
M  ZZM  14 7
M  ZZI  14 81
M  ZZM  15 10
M  ZZI  15 191
M  ZZM  16 3
M  ZZI  16 121
M  ZZM  17 7
M  ZZI  17 81
M  ZZM  18 1
M  ZZI  18 112
M  ZZM  19 1
M  ZZI  19 112
M  ZZM  20 5
M  ZZI  20 1
M  ZZM  21 5
M  ZZI  21 1
M  ZZM  22 5
M  ZZI  22 1
M  ZZM  23 5
M  ZZI  23 1
M  ZZM  24 5
M  ZZI  24 1
M  ZZM  25 28
M  ZZI  25 11
M  ZZM  26 5
M  ZZI  26 1
M  ZZM  27 5
M  ZZI  27 1
M  ZZM  28 5
M  ZZI  28 1
M  ZZM  29 5
M  ZZI  29 1
M  END
> <IX>
1

> <NAME>
Cereblon_2VTI_18.pdb

> <Score>
-19.33365

> <Natom>
29

> <Nflex>
1

> <Hbond>
-3.367128

> <Hphob>
-3.561117

> <VwInt>
-22.705163

> <Dsolv>
12.045448

> <SolEl>
5.686294

> <Eintl>
1.482092

> <RecConf>
ND

> <projPath>
Cereblon_maps/

> <NAME_>
Cereblon_2VTI_18.pdb

$$$$
