Cereblon_6J3P_3.pdb
  MOLSOFT 04032206283D

 29 31  0  0  1  0  0  0  0  0999 V2000
   72.5838   42.8737   36.0754 C   0  0  0  0  0  0  0  0  0  0  0  0
   73.1147   42.0942   37.0852 C   0  0  0  0  0  0  0  0  0  0  0  0
   74.5072   41.8570   37.4571 C   0  0  0  0  0  0  0  0  0  0  0  0
   75.4679   42.3830   36.9129 O   0  0  0  0  0  0  0  0  0  0  0  0
   74.4855   40.9818   38.5239 N   0  0  0  0  0  0  0  0  0  0  0  0
   73.1862   40.7246   38.9167 C   0  0  0  0  0  0  0  0  0  0  0  0
   72.7616   40.0854   39.8679 O   0  0  0  0  0  0  0  0  0  0  0  0
   72.3240   41.4131   37.9581 C   0  0  0  0  0  0  0  0  0  0  0  0
   70.9438   41.4624   37.8875 C   0  0  0  0  0  0  0  0  0  0  0  0
   70.3895   42.2410   36.8752 C   0  0  0  0  0  0  0  0  0  0  0  0
   71.1988   42.9382   35.9788 C   0  0  0  0  0  0  0  0  0  0  0  0
   75.7152   40.5350   39.1905 C   0  0  1  0  0  0  0  0  0  0  0  0
   76.0908   41.5429   40.2556 C   0  0  0  0  0  0  0  0  0  0  0  0
   75.7084   42.7008   40.2089 O   0  0  0  0  0  0  0  0  0  0  0  0
   76.9370   41.0901   41.2414 N   0  0  0  0  0  0  0  0  0  0  0  0
   77.4335   39.8208   41.4177 C   0  0  0  0  0  0  0  0  0  0  0  0
   78.2104   39.5505   42.3187 O   0  0  0  0  0  0  0  0  0  0  0  0
   77.0024   38.7882   40.4039 C   0  0  0  0  0  0  0  0  0  0  0  0
   75.6542   39.1374   39.7982 C   0  0  0  0  0  0  0  0  0  0  0  0
   73.2203   43.4222   35.3960 H   0  0  0  0  0  0  0  0  0  0  0  0
   70.3261   40.9289   38.6026 H   0  0  0  0  0  0  0  0  0  0  0  0
   69.3105   42.3196   36.7879 H   0  0  0  0  0  0  0  0  0  0  0  0
   70.7425   43.5469   35.2036 H   0  0  0  0  0  0  0  0  0  0  0  0
   76.5212   40.5790   38.4540 H   0  0  0  0  0  0  0  0  0  0  0  0
   77.2284   41.7773   41.9256 H   0  0  0  0  0  0  0  0  0  0  0  0
   77.7772   38.7232   39.6337 H   0  0  0  0  0  0  0  0  0  0  0  0
   76.9410   37.8158   40.9026 H   0  0  0  0  0  0  0  0  0  0  0  0
   74.8940   39.0829   40.5819 H   0  0  0  0  0  0  0  0  0  0  0  0
   75.3780   38.3989   39.0395 H   0  0  0  0  0  0  0  0  0  0  0  0
  1 20  1  0  0  0  0
  1  2  1  0  0  0  0
  1 11  2  0  0  0  0
  2  3  1  0  0  0  0
  2  8  2  0  0  0  0
  3  4  2  0  0  0  0
  3  5  1  0  0  0  0
  5  6  1  0  0  0  0
 12  5  1  0  0  0  0
  6  7  2  0  0  0  0
  6  8  1  0  0  0  0
  8  9  1  0  0  0  0
  9 21  1  0  0  0  0
  9 10  2  0  0  0  0
 10 22  1  0  0  0  0
 10 11  1  0  0  0  0
 11 23  1  0  0  0  0
 12 24  1  0  0  0  0
 12 13  1  0  0  0  0
 12 19  1  0  0  0  0
 13 14  2  0  0  0  0
 13 15  1  0  0  0  0
 15 25  1  0  0  0  0
 15 16  1  0  0  0  0
 16 17  2  0  0  0  0
 16 18  1  0  0  0  0
 18 26  1  0  0  0  0
 18 27  1  0  0  0  0
 18 19  1  0  0  0  0
 19 28  1  0  0  0  0
 19 29  1  0  0  0  0
M  ZZC   1 c1
M  ZZC   2 c2
M  ZZC   3 c3
M  ZZC   4 o1
M  ZZC   5 n1
M  ZZC   6 c4
M  ZZC   7 o2
M  ZZC   8 c5
M  ZZC   9 c6
M  ZZC  10 c7
M  ZZC  11 c8
M  ZZC  12 c9
M  ZZC  13 c10
M  ZZC  14 o3
M  ZZC  15 n2
M  ZZC  16 c11
M  ZZC  17 o4
M  ZZC  18 c12
M  ZZC  19 c13
M  ZZC  20 h11
M  ZZC  21 h61
M  ZZC  22 h71
M  ZZC  23 h81
M  ZZC  24 h91
M  ZZC  25 h21
M  ZZC  26 h121
M  ZZC  27 h122
M  ZZC  28 h131
M  ZZC  29 h132
M  ZZM   1 37
M  ZZI   1 125
M  ZZM   2 37
M  ZZI   2 124
M  ZZM   3 3
M  ZZI   3 121
M  ZZM   4 7
M  ZZI   4 81
M  ZZM   5 10
M  ZZI   5 192
M  ZZM   6 3
M  ZZI   6 121
M  ZZM   7 7
M  ZZI   7 81
M  ZZM   8 37
M  ZZI   8 124
M  ZZM   9 37
M  ZZI   9 125
M  ZZM  10 37
M  ZZI  10 125
M  ZZM  11 37
M  ZZI  11 125
M  ZZM  12 1
M  ZZI  12 113
M  ZZM  13 3
M  ZZI  13 121
M  ZZM  14 7
M  ZZI  14 81
M  ZZM  15 10
M  ZZI  15 191
M  ZZM  16 3
M  ZZI  16 121
M  ZZM  17 7
M  ZZI  17 81
M  ZZM  18 1
M  ZZI  18 112
M  ZZM  19 1
M  ZZI  19 112
M  ZZM  20 5
M  ZZI  20 1
M  ZZM  21 5
M  ZZI  21 1
M  ZZM  22 5
M  ZZI  22 1
M  ZZM  23 5
M  ZZI  23 1
M  ZZM  24 5
M  ZZI  24 1
M  ZZM  25 28
M  ZZI  25 11
M  ZZM  26 5
M  ZZI  26 1
M  ZZM  27 5
M  ZZI  27 1
M  ZZM  28 5
M  ZZI  28 1
M  ZZM  29 5
M  ZZI  29 1
M  END
> <IX>
1

> <NAME>
Cereblon_6J3P_3.pdb

> <Score>
-12.545491

> <Natom>
29

> <Nflex>
1

> <Hbond>
-3.424586

> <Hphob>
-3.651567

> <VwInt>
-20.053981

> <Dsolv>
14.137423

> <SolEl>
10.125009

> <Eintl>
1.222782

> <RecConf>
ND

> <projPath>
Cereblon_maps/

> <NAME_>
Cereblon_6J3P_3.pdb

$$$$
