Cereblon_3KRR_6.pdb
  MOLSOFT 04032206213D

 30 32  0  0  1  0  0  0  0  0999 V2000
   76.4984   38.0012   40.5385 C   0  0  0  0  0  0  0  0  0  0  0  0
   75.7684   39.0381   39.9823 C   0  0  0  0  0  0  0  0  0  0  0  0
   75.9794   40.3227   40.4015 C   0  0  0  0  0  0  0  0  0  0  0  0
   75.0802   41.1970   39.6466 C   0  0  0  0  0  0  0  0  0  0  0  0
   74.9508   42.3956   39.8367 O   0  0  0  0  0  0  0  0  0  0  0  0
   74.4380   40.4037   38.7162 N   0  0  0  0  0  0  0  0  0  0  0  0
   73.4048   40.8601   37.7797 C   0  0  2  0  0  0  0  0  0  0  0  0
   73.8561   42.1051   37.0084 C   0  0  0  0  0  0  0  0  0  0  0  0
   75.0260   42.3505   36.7491 O   0  0  0  0  0  0  0  0  0  0  0  0
   72.8517   42.9291   36.5523 N   0  0  0  0  0  0  0  0  0  0  0  0
   71.4960   42.8192   36.7471 C   0  0  0  0  0  0  0  0  0  0  0  0
   70.7112   43.6609   36.3363 O   0  0  0  0  0  0  0  0  0  0  0  0
   71.0408   41.5696   37.4562 C   0  0  0  0  0  0  0  0  0  0  0  0
   72.0684   41.0953   38.4708 C   0  0  0  0  0  0  0  0  0  0  0  0
   74.7015   38.9955   38.9456 C   0  0  0  0  0  0  0  0  0  0  0  0
   76.9059   40.6636   41.3704 C   0  0  0  0  0  0  0  0  0  0  0  0
   77.6341   39.6274   41.9347 C   0  0  0  0  0  0  0  0  0  0  0  0
   77.4334   38.3131   41.5193 C   0  0  0  0  0  0  0  0  0  0  0  0
   76.3456   36.9732   40.2233 H   0  0  0  0  0  0  0  0  0  0  0  0
   73.2879   40.0719   37.0271 H   0  0  0  0  0  0  0  0  0  0  0  0
   73.1543   43.7541   36.0528 H   0  0  0  0  0  0  0  0  0  0  0  0
   70.0981   41.7867   37.9632 H   0  0  0  0  0  0  0  0  0  0  0  0
   70.8523   40.7983   36.7025 H   0  0  0  0  0  0  0  0  0  0  0  0
   72.1782   41.8278   39.2773 H   0  0  0  0  0  0  0  0  0  0  0  0
   71.7180   40.1726   38.9451 H   0  0  0  0  0  0  0  0  0  0  0  0
   75.0176   38.5133   38.0182 H   0  0  0  0  0  0  0  0  0  0  0  0
   73.7950   38.5182   39.3339 H   0  0  0  0  0  0  0  0  0  0  0  0
   77.0690   41.6930   41.6739 H   0  0  0  0  0  0  0  0  0  0  0  0
   78.3662   39.8443   42.7067 H   0  0  0  0  0  0  0  0  0  0  0  0
   78.0166   37.5188   41.9737 H   0  0  0  0  0  0  0  0  0  0  0  0
  1 19  1  0  0  0  0
  1 18  2  0  0  0  0
  1  2  1  0  0  0  0
  2  3  2  0  0  0  0
  2 15  1  0  0  0  0
  3 16  1  0  0  0  0
  3  4  1  0  0  0  0
  4  6  1  0  0  0  0
  4  5  2  0  0  0  0
  6 15  1  0  0  0  0
  7  6  1  0  0  0  0
  7 20  1  0  0  0  0
  7  8  1  0  0  0  0
  7 14  1  0  0  0  0
  8  9  2  0  0  0  0
  8 10  1  0  0  0  0
 10 21  1  0  0  0  0
 10 11  1  0  0  0  0
 11 12  2  0  0  0  0
 11 13  1  0  0  0  0
 13 22  1  0  0  0  0
 13 23  1  0  0  0  0
 13 14  1  0  0  0  0
 14 24  1  0  0  0  0
 14 25  1  0  0  0  0
 15 26  1  0  0  0  0
 15 27  1  0  0  0  0
 16 17  2  0  0  0  0
 16 28  1  0  0  0  0
 17 18  1  0  0  0  0
 17 29  1  0  0  0  0
 18 30  1  0  0  0  0
M  ZZC   1 c1
M  ZZC   2 c2
M  ZZC   3 c3
M  ZZC   4 c4
M  ZZC   5 o1
M  ZZC   6 n1
M  ZZC   7 c5
M  ZZC   8 c6
M  ZZC   9 o2
M  ZZC  10 n2
M  ZZC  11 c7
M  ZZC  12 o3
M  ZZC  13 c8
M  ZZC  14 c9
M  ZZC  15 c10
M  ZZC  16 c11
M  ZZC  17 c12
M  ZZC  18 c13
M  ZZC  19 h11
M  ZZC  20 h51
M  ZZC  21 h21
M  ZZC  22 h81
M  ZZC  23 h82
M  ZZC  24 h91
M  ZZC  25 h92
M  ZZC  26 h101
M  ZZC  27 h102
M  ZZC  28 h111
M  ZZC  29 h121
M  ZZC  30 h131
M  ZZM   1 37
M  ZZI   1 125
M  ZZM   2 37
M  ZZI   2 124
M  ZZM   3 37
M  ZZI   3 124
M  ZZM   4 3
M  ZZI   4 121
M  ZZM   5 7
M  ZZI   5 81
M  ZZM   6 10
M  ZZI   6 192
M  ZZM   7 1
M  ZZI   7 113
M  ZZM   8 3
M  ZZI   8 121
M  ZZM   9 7
M  ZZI   9 81
M  ZZM  10 10
M  ZZI  10 191
M  ZZM  11 3
M  ZZI  11 121
M  ZZM  12 7
M  ZZI  12 81
M  ZZM  13 1
M  ZZI  13 112
M  ZZM  14 1
M  ZZI  14 112
M  ZZM  15 1
M  ZZI  15 112
M  ZZM  16 37
M  ZZI  16 125
M  ZZM  17 37
M  ZZI  17 125
M  ZZM  18 37
M  ZZI  18 125
M  ZZM  19 5
M  ZZI  19 1
M  ZZM  20 5
M  ZZI  20 1
M  ZZM  21 28
M  ZZI  21 11
M  ZZM  22 5
M  ZZI  22 1
M  ZZM  23 5
M  ZZI  23 1
M  ZZM  24 5
M  ZZI  24 1
M  ZZM  25 5
M  ZZI  25 1
M  ZZM  26 5
M  ZZI  26 1
M  ZZM  27 5
M  ZZI  27 1
M  ZZM  28 5
M  ZZI  28 1
M  ZZM  29 5
M  ZZI  29 1
M  ZZM  30 5
M  ZZI  30 1
M  END
> <IX>
1

> <NAME>
Cereblon_3KRR_6.pdb

> <Score>
-17.264817

> <Natom>
30

> <Nflex>
1

> <Hbond>
-4.670629

> <Hphob>
-3.54885

> <VwInt>
-20.536739

> <Dsolv>
14.28851

> <SolEl>
5.93993

> <Eintl>
3.716012

> <RecConf>
ND

> <projPath>
Cereblon_maps/

> <NAME_>
Cereblon_3KRR_6.pdb

$$$$
