Cereblon_1HWK_19.pdb
  MOLSOFT 04032206193D

 31 33  0  0  1  0  0  0  0  0999 V2000
   69.8657   40.5204   38.0948 N   0  0  0  0  0  0  0  0  0  0  0  0
   70.7506   41.3674   37.4060 C   0  0  0  0  0  0  0  0  0  0  0  0
   72.1216   41.3528   37.6289 C   0  0  0  0  0  0  0  0  0  0  0  0
   72.9195   40.5384   38.5492 C   0  0  0  0  0  0  0  0  0  0  0  0
   72.4364   39.7438   39.3432 O   0  0  0  0  0  0  0  0  0  0  0  0
   74.2414   40.8821   38.3325 N   0  0  0  0  0  0  0  0  0  0  0  0
   74.3362   41.8850   37.3897 C   0  0  0  0  0  0  0  0  0  0  0  0
   75.3366   42.4416   36.9570 O   0  0  0  0  0  0  0  0  0  0  0  0
   72.9709   42.1836   36.9634 C   0  0  0  0  0  0  0  0  0  0  0  0
   72.5139   43.1395   36.0777 C   0  0  0  0  0  0  0  0  0  0  0  0
   71.1441   43.2208   35.8772 C   0  0  0  0  0  0  0  0  0  0  0  0
   70.2790   42.3511   36.5379 C   0  0  0  0  0  0  0  0  0  0  0  0
   75.4225   40.3836   39.0540 C   0  0  1  0  0  0  0  0  0  0  0  0
   75.7088   41.3008   40.2224 C   0  0  0  0  0  0  0  0  0  0  0  0
   75.2608   42.4342   40.2707 O   0  0  0  0  0  0  0  0  0  0  0  0
   76.5592   40.7997   41.1818 N   0  0  0  0  0  0  0  0  0  0  0  0
   77.0696   39.5281   41.2786 C   0  0  0  0  0  0  0  0  0  0  0  0
   77.8425   39.2090   42.1670 O   0  0  0  0  0  0  0  0  0  0  0  0
   76.6550   38.5571   40.2000 C   0  0  0  0  0  0  0  0  0  0  0  0
   75.3302   38.9510   39.5663 C   0  0  0  0  0  0  0  0  0  0  0  0
   68.9151   40.4080   37.7317 H   0  0  0  0  0  0  0  0  0  0  0  0
   70.2715   39.7741   38.6648 H   0  0  0  0  0  0  0  0  0  0  0  0
   73.1919   43.8196   35.5842 H   0  0  0  0  0  0  0  0  0  0  0  0
   70.7435   43.9752   35.2060 H   0  0  0  0  0  0  0  0  0  0  0  0
   69.2115   42.4565   36.3736 H   0  0  0  0  0  0  0  0  0  0  0  0
   76.2869   40.4895   38.3926 H   0  0  0  0  0  0  0  0  0  0  0  0
   76.8269   41.4346   41.9236 H   0  0  0  0  0  0  0  0  0  0  0  0
   77.4569   38.5271   39.4563 H   0  0  0  0  0  0  0  0  0  0  0  0
   76.5692   37.5604   40.6441 H   0  0  0  0  0  0  0  0  0  0  0  0
   75.0811   38.2636   38.7518 H   0  0  0  0  0  0  0  0  0  0  0  0
   74.5408   38.8572   40.3188 H   0  0  0  0  0  0  0  0  0  0  0  0
  1  2  1  0  0  0  0
  1 21  1  0  0  0  0
  1 22  1  0  0  0  0
  2  3  1  0  0  0  0
  2 12  2  0  0  0  0
  3  9  2  0  0  0  0
  3  4  1  0  0  0  0
  4  5  2  0  0  0  0
  4  6  1  0  0  0  0
  6  7  1  0  0  0  0
 13  6  1  0  0  0  0
  7  8  2  0  0  0  0
  7  9  1  0  0  0  0
  9 10  1  0  0  0  0
 10 23  1  0  0  0  0
 10 11  2  0  0  0  0
 11 12  1  0  0  0  0
 11 24  1  0  0  0  0
 12 25  1  0  0  0  0
 13 26  1  0  0  0  0
 13 14  1  0  0  0  0
 13 20  1  0  0  0  0
 14 15  2  0  0  0  0
 14 16  1  0  0  0  0
 16 27  1  0  0  0  0
 16 17  1  0  0  0  0
 17 18  2  0  0  0  0
 17 19  1  0  0  0  0
 19 28  1  0  0  0  0
 19 29  1  0  0  0  0
 19 20  1  0  0  0  0
 20 30  1  0  0  0  0
 20 31  1  0  0  0  0
M  ZZC   1 n1
M  ZZC   2 c1
M  ZZC   3 c2
M  ZZC   4 c3
M  ZZC   5 o1
M  ZZC   6 n2
M  ZZC   7 c4
M  ZZC   8 o2
M  ZZC   9 c5
M  ZZC  10 c6
M  ZZC  11 c7
M  ZZC  12 c8
M  ZZC  13 c9
M  ZZC  14 c10
M  ZZC  15 o3
M  ZZC  16 n3
M  ZZC  17 c11
M  ZZC  18 o4
M  ZZC  19 c12
M  ZZC  20 c13
M  ZZC  21 h11
M  ZZC  22 h12
M  ZZC  23 h61
M  ZZC  24 h71
M  ZZC  25 h81
M  ZZC  26 h91
M  ZZC  27 h31
M  ZZC  28 h121
M  ZZC  29 h122
M  ZZC  30 h131
M  ZZC  31 h132
M  ZZM   1 40
M  ZZI   1 224
M  ZZM   2 37
M  ZZI   2 124
M  ZZM   3 37
M  ZZI   3 124
M  ZZM   4 3
M  ZZI   4 121
M  ZZM   5 7
M  ZZI   5 81
M  ZZM   6 10
M  ZZI   6 192
M  ZZM   7 3
M  ZZI   7 121
M  ZZM   8 7
M  ZZI   8 81
M  ZZM   9 37
M  ZZI   9 124
M  ZZM  10 37
M  ZZI  10 125
M  ZZM  11 37
M  ZZI  11 125
M  ZZM  12 37
M  ZZI  12 125
M  ZZM  13 1
M  ZZI  13 113
M  ZZM  14 3
M  ZZI  14 121
M  ZZM  15 7
M  ZZI  15 81
M  ZZM  16 10
M  ZZI  16 191
M  ZZM  17 3
M  ZZI  17 121
M  ZZM  18 7
M  ZZI  18 81
M  ZZM  19 1
M  ZZI  19 112
M  ZZM  20 1
M  ZZI  20 112
M  ZZM  21 28
M  ZZI  21 11
M  ZZM  22 28
M  ZZI  22 11
M  ZZM  23 5
M  ZZI  23 1
M  ZZM  24 5
M  ZZI  24 1
M  ZZM  25 5
M  ZZI  25 1
M  ZZM  26 5
M  ZZI  26 1
M  ZZM  27 28
M  ZZI  27 11
M  ZZM  28 5
M  ZZI  28 1
M  ZZM  29 5
M  ZZI  29 1
M  ZZM  30 5
M  ZZI  30 1
M  ZZM  31 5
M  ZZI  31 1
M  END
> <IX>
1

> <NAME>
Cereblon_1HWK_19.pdb

> <Score>
-8.407747

> <Natom>
31

> <Nflex>
1

> <Hbond>
-3.524324

> <Hphob>
-3.675223

> <VwInt>
-17.335963

> <Dsolv>
15.069916

> <SolEl>
10.761957

> <Eintl>
2.169712

> <RecConf>
ND

> <projPath>
Cereblon_maps/

> <NAME_>
Cereblon_1HWK_19.pdb

$$$$
