Cereblon_1EJ1_1.pdb
  MOLSOFT 04032206183D

 30 32  0  0  1  0  0  0  0  0999 V2000
   75.6630   37.9065   39.7404 C   0  0  0  0  0  0  0  0  0  0  0  0
   74.9742   39.0093   39.2639 C   0  0  0  0  0  0  0  0  0  0  0  0
   75.2916   40.2594   39.7139 C   0  0  0  0  0  0  0  0  0  0  0  0
   74.4086   41.2226   39.0548 C   0  0  0  0  0  0  0  0  0  0  0  0
   74.4186   42.4175   39.3090 O   0  0  0  0  0  0  0  0  0  0  0  0
   73.6289   40.5053   38.1600 N   0  0  0  0  0  0  0  0  0  0  0  0
   72.5982   41.0328   37.2507 C   0  0  1  0  0  0  0  0  0  0  0  0
   71.2763   41.2578   37.9838 C   0  0  0  0  0  0  0  0  0  0  0  0
   70.9137   40.5814   38.9355 O   0  0  0  0  0  0  0  0  0  0  0  0
   70.4429   42.2129   37.4480 N   0  0  0  0  0  0  0  0  0  0  0  0
   70.6535   43.0384   36.3760 C   0  0  0  0  0  0  0  0  0  0  0  0
   69.8501   43.9086   36.0768 O   0  0  0  0  0  0  0  0  0  0  0  0
   71.9137   42.7755   35.5919 C   0  0  0  0  0  0  0  0  0  0  0  0
   73.0307   42.2936   36.5031 C   0  0  0  0  0  0  0  0  0  0  0  0
   73.8671   39.0762   38.2736 C   0  0  0  0  0  0  0  0  0  0  0  0
   76.2982   40.5014   40.6310 C   0  0  0  0  0  0  0  0  0  0  0  0
   76.9944   39.4010   41.1085 C   0  0  0  0  0  0  0  0  0  0  0  0
   76.6785   38.1192   40.6658 C   0  0  0  0  0  0  0  0  0  0  0  0
   75.4256   36.9036   39.3991 H   0  0  0  0  0  0  0  0  0  0  0  0
   72.4059   40.2508   36.5067 H   0  0  0  0  0  0  0  0  0  0  0  0
   69.5703   42.3627   37.9344 H   0  0  0  0  0  0  0  0  0  0  0  0
   71.6917   42.0386   34.8126 H   0  0  0  0  0  0  0  0  0  0  0  0
   72.2117   43.7066   35.1057 H   0  0  0  0  0  0  0  0  0  0  0  0
   73.9323   42.0938   35.9151 H   0  0  0  0  0  0  0  0  0  0  0  0
   73.2857   43.0956   37.2013 H   0  0  0  0  0  0  0  0  0  0  0  0
   74.1592   38.6698   37.2996 H   0  0  0  0  0  0  0  0  0  0  0  0
   72.9632   38.5834   38.6478 H   0  0  0  0  0  0  0  0  0  0  0  0
   76.5435   41.5070   40.9572 H   0  0  0  0  0  0  0  0  0  0  0  0
   77.7928   39.5428   41.8306 H   0  0  0  0  0  0  0  0  0  0  0  0
   77.2370   37.2714   41.0496 H   0  0  0  0  0  0  0  0  0  0  0  0
  1 19  1  0  0  0  0
  1 18  2  0  0  0  0
  1  2  1  0  0  0  0
  2  3  2  0  0  0  0
  2 15  1  0  0  0  0
  3 16  1  0  0  0  0
  3  4  1  0  0  0  0
  4  6  1  0  0  0  0
  4  5  2  0  0  0  0
  6 15  1  0  0  0  0
  7  6  1  0  0  0  0
  7 20  1  0  0  0  0
  7  8  1  0  0  0  0
  7 14  1  0  0  0  0
  8  9  2  0  0  0  0
  8 10  1  0  0  0  0
 10 21  1  0  0  0  0
 10 11  1  0  0  0  0
 11 12  2  0  0  0  0
 11 13  1  0  0  0  0
 13 22  1  0  0  0  0
 13 23  1  0  0  0  0
 13 14  1  0  0  0  0
 14 24  1  0  0  0  0
 14 25  1  0  0  0  0
 15 26  1  0  0  0  0
 15 27  1  0  0  0  0
 16 17  2  0  0  0  0
 16 28  1  0  0  0  0
 17 18  1  0  0  0  0
 17 29  1  0  0  0  0
 18 30  1  0  0  0  0
M  ZZC   1 c1
M  ZZC   2 c2
M  ZZC   3 c3
M  ZZC   4 c4
M  ZZC   5 o1
M  ZZC   6 n1
M  ZZC   7 c5
M  ZZC   8 c6
M  ZZC   9 o2
M  ZZC  10 n2
M  ZZC  11 c7
M  ZZC  12 o3
M  ZZC  13 c8
M  ZZC  14 c9
M  ZZC  15 c10
M  ZZC  16 c11
M  ZZC  17 c12
M  ZZC  18 c13
M  ZZC  19 h11
M  ZZC  20 h51
M  ZZC  21 h21
M  ZZC  22 h81
M  ZZC  23 h82
M  ZZC  24 h91
M  ZZC  25 h92
M  ZZC  26 h101
M  ZZC  27 h102
M  ZZC  28 h111
M  ZZC  29 h121
M  ZZC  30 h131
M  ZZM   1 37
M  ZZI   1 125
M  ZZM   2 37
M  ZZI   2 124
M  ZZM   3 37
M  ZZI   3 124
M  ZZM   4 3
M  ZZI   4 121
M  ZZM   5 7
M  ZZI   5 81
M  ZZM   6 10
M  ZZI   6 192
M  ZZM   7 1
M  ZZI   7 113
M  ZZM   8 3
M  ZZI   8 121
M  ZZM   9 7
M  ZZI   9 81
M  ZZM  10 10
M  ZZI  10 191
M  ZZM  11 3
M  ZZI  11 121
M  ZZM  12 7
M  ZZI  12 81
M  ZZM  13 1
M  ZZI  13 112
M  ZZM  14 1
M  ZZI  14 112
M  ZZM  15 1
M  ZZI  15 112
M  ZZM  16 37
M  ZZI  16 125
M  ZZM  17 37
M  ZZI  17 125
M  ZZM  18 37
M  ZZI  18 125
M  ZZM  19 5
M  ZZI  19 1
M  ZZM  20 5
M  ZZI  20 1
M  ZZM  21 28
M  ZZI  21 11
M  ZZM  22 5
M  ZZI  22 1
M  ZZM  23 5
M  ZZI  23 1
M  ZZM  24 5
M  ZZI  24 1
M  ZZM  25 5
M  ZZI  25 1
M  ZZM  26 5
M  ZZI  26 1
M  ZZM  27 5
M  ZZI  27 1
M  ZZM  28 5
M  ZZI  28 1
M  ZZM  29 5
M  ZZI  29 1
M  ZZM  30 5
M  ZZI  30 1
M  END
> <IX>
1

> <NAME>
Cereblon_1EJ1_1.pdb

> <Score>
-20.748821

> <Natom>
30

> <Nflex>
1

> <Hbond>
-4.63605

> <Hphob>
-3.618864

> <VwInt>
-22.021094

> <Dsolv>
13.166047

> <SolEl>
5.955019

> <Eintl>
1.702119

> <RecConf>
ND

> <projPath>
Cereblon_maps/

> <NAME_>
Cereblon_1EJ1_1.pdb

$$$$
