Cereblon_4QNQ_44.pdb
  MOLSOFT 04032206243D

 31 33  0  0  1  0  0  0  0  0999 V2000
   77.3617   41.8983   41.5776 N   0  0  0  0  0  0  0  0  0  0  0  0
   77.0545   40.5975   41.1496 C   0  0  0  0  0  0  0  0  0  0  0  0
   76.0532   40.3161   40.2260 C   0  0  0  0  0  0  0  0  0  0  0  0
   75.1447   41.2075   39.4958 C   0  0  0  0  0  0  0  0  0  0  0  0
   75.0862   42.4129   39.6848 O   0  0  0  0  0  0  0  0  0  0  0  0
   74.3940   40.4079   38.6547 N   0  0  0  0  0  0  0  0  0  0  0  0
   74.6963   39.0780   38.8540 C   0  0  0  0  0  0  0  0  0  0  0  0
   74.2070   38.0849   38.3355 O   0  0  0  0  0  0  0  0  0  0  0  0
   75.7638   39.0382   39.8499 C   0  0  0  0  0  0  0  0  0  0  0  0
   76.4173   37.9411   40.3779 C   0  0  0  0  0  0  0  0  0  0  0  0
   77.3875   38.1936   41.3366 C   0  0  0  0  0  0  0  0  0  0  0  0
   77.6870   39.4986   41.7231 C   0  0  0  0  0  0  0  0  0  0  0  0
   73.3373   40.8491   37.7315 C   0  0  1  0  0  0  0  0  0  0  0  0
   72.0294   41.0630   38.4835 C   0  0  0  0  0  0  0  0  0  0  0  0
   71.7675   40.5182   39.5460 O   0  0  0  0  0  0  0  0  0  0  0  0
   71.1049   41.8642   37.8525 N   0  0  0  0  0  0  0  0  0  0  0  0
   71.2578   42.6292   36.7209 C   0  0  0  0  0  0  0  0  0  0  0  0
   70.3954   43.4084   36.3427 O   0  0  0  0  0  0  0  0  0  0  0  0
   72.5532   42.4316   35.9716 C   0  0  0  0  0  0  0  0  0  0  0  0
   73.6880   42.0973   36.9255 C   0  0  0  0  0  0  0  0  0  0  0  0
   78.1870   42.0516   42.1529 H   0  0  0  0  0  0  0  0  0  0  0  0
   76.9928   42.6946   41.0570 H   0  0  0  0  0  0  0  0  0  0  0  0
   76.1753   36.9288   40.0691 H   0  0  0  0  0  0  0  0  0  0  0  0
   77.9160   37.3643   41.7970 H   0  0  0  0  0  0  0  0  0  0  0  0
   78.4383   39.6576   42.4905 H   0  0  0  0  0  0  0  0  0  0  0  0
   73.1499   40.0228   37.0357 H   0  0  0  0  0  0  0  0  0  0  0  0
   70.2376   42.0006   38.3499 H   0  0  0  0  0  0  0  0  0  0  0  0
   72.4100   41.6347   35.2341 H   0  0  0  0  0  0  0  0  0  0  0  0
   72.7839   43.3556   35.4338 H   0  0  0  0  0  0  0  0  0  0  0  0
   74.6131   41.9436   36.3637 H   0  0  0  0  0  0  0  0  0  0  0  0
   73.8619   42.9520   37.5842 H   0  0  0  0  0  0  0  0  0  0  0  0
  1  2  1  0  0  0  0
  1 21  1  0  0  0  0
  1 22  1  0  0  0  0
  2  3  1  0  0  0  0
  2 12  2  0  0  0  0
  3  9  2  0  0  0  0
  3  4  1  0  0  0  0
  4  5  2  0  0  0  0
  4  6  1  0  0  0  0
  6  7  1  0  0  0  0
 13  6  1  0  0  0  0
  7  8  2  0  0  0  0
  7  9  1  0  0  0  0
  9 10  1  0  0  0  0
 10 23  1  0  0  0  0
 10 11  2  0  0  0  0
 11 12  1  0  0  0  0
 11 24  1  0  0  0  0
 12 25  1  0  0  0  0
 13 26  1  0  0  0  0
 13 14  1  0  0  0  0
 13 20  1  0  0  0  0
 14 15  2  0  0  0  0
 14 16  1  0  0  0  0
 16 27  1  0  0  0  0
 16 17  1  0  0  0  0
 17 18  2  0  0  0  0
 17 19  1  0  0  0  0
 19 28  1  0  0  0  0
 19 29  1  0  0  0  0
 19 20  1  0  0  0  0
 20 30  1  0  0  0  0
 20 31  1  0  0  0  0
M  ZZC   1 n1
M  ZZC   2 c1
M  ZZC   3 c2
M  ZZC   4 c3
M  ZZC   5 o1
M  ZZC   6 n2
M  ZZC   7 c4
M  ZZC   8 o2
M  ZZC   9 c5
M  ZZC  10 c6
M  ZZC  11 c7
M  ZZC  12 c8
M  ZZC  13 c9
M  ZZC  14 c10
M  ZZC  15 o3
M  ZZC  16 n3
M  ZZC  17 c11
M  ZZC  18 o4
M  ZZC  19 c12
M  ZZC  20 c13
M  ZZC  21 h11
M  ZZC  22 h12
M  ZZC  23 h61
M  ZZC  24 h71
M  ZZC  25 h81
M  ZZC  26 h91
M  ZZC  27 h31
M  ZZC  28 h121
M  ZZC  29 h122
M  ZZC  30 h131
M  ZZC  31 h132
M  ZZM   1 40
M  ZZI   1 224
M  ZZM   2 37
M  ZZI   2 124
M  ZZM   3 37
M  ZZI   3 124
M  ZZM   4 3
M  ZZI   4 121
M  ZZM   5 7
M  ZZI   5 81
M  ZZM   6 10
M  ZZI   6 192
M  ZZM   7 3
M  ZZI   7 121
M  ZZM   8 7
M  ZZI   8 81
M  ZZM   9 37
M  ZZI   9 124
M  ZZM  10 37
M  ZZI  10 125
M  ZZM  11 37
M  ZZI  11 125
M  ZZM  12 37
M  ZZI  12 125
M  ZZM  13 1
M  ZZI  13 113
M  ZZM  14 3
M  ZZI  14 121
M  ZZM  15 7
M  ZZI  15 81
M  ZZM  16 10
M  ZZI  16 191
M  ZZM  17 3
M  ZZI  17 121
M  ZZM  18 7
M  ZZI  18 81
M  ZZM  19 1
M  ZZI  19 112
M  ZZM  20 1
M  ZZI  20 112
M  ZZM  21 28
M  ZZI  21 11
M  ZZM  22 28
M  ZZI  22 11
M  ZZM  23 5
M  ZZI  23 1
M  ZZM  24 5
M  ZZI  24 1
M  ZZM  25 5
M  ZZI  25 1
M  ZZM  26 5
M  ZZI  26 1
M  ZZM  27 28
M  ZZI  27 11
M  ZZM  28 5
M  ZZI  28 1
M  ZZM  29 5
M  ZZI  29 1
M  ZZM  30 5
M  ZZI  30 1
M  ZZM  31 5
M  ZZI  31 1
M  END
> <IX>
1

> <NAME>
Cereblon_4QNQ_44.pdb

> <Score>
-15.681252

> <Natom>
31

> <Nflex>
1

> <Hbond>
-3.519405

> <Hphob>
-3.643804

> <VwInt>
-24.006192

> <Dsolv>
16.529207

> <SolEl>
9.350014

> <Eintl>
0.837449

> <RecConf>
ND

> <projPath>
Cereblon_maps/

> <NAME_>
Cereblon_4QNQ_44.pdb

$$$$
