Cereblon_2GQG_37.pdb
  MOLSOFT 04032206203D

 31 33  0  0  1  0  0  0  0  0999 V2000
   78.8136   41.6778   43.8179 N   0  0  0  0  0  0  0  0  0  0  0  0
   78.9070   42.4225   42.6315 C   0  0  0  0  0  0  0  0  0  0  0  0
   78.1004   42.1574   41.5376 C   0  0  0  0  0  0  0  0  0  0  0  0
   77.1794   41.0468   41.3307 C   0  0  0  0  0  0  0  0  0  0  0  0
   76.9984   40.1642   42.1563 O   0  0  0  0  0  0  0  0  0  0  0  0
   76.6448   41.2111   40.0682 N   0  0  0  0  0  0  0  0  0  0  0  0
   77.1658   42.3318   39.4542 C   0  0  0  0  0  0  0  0  0  0  0  0
   76.9531   42.7539   38.3249 O   0  0  0  0  0  0  0  0  0  0  0  0
   78.0971   42.9272   40.4139 C   0  0  0  0  0  0  0  0  0  0  0  0
   78.9080   44.0371   40.2934 C   0  0  0  0  0  0  0  0  0  0  0  0
   79.7240   44.3370   41.3781 C   0  0  0  0  0  0  0  0  0  0  0  0
   79.7117   43.5537   42.5338 C   0  0  0  0  0  0  0  0  0  0  0  0
   75.6250   40.3747   39.4316 C   0  0  2  0  0  0  0  0  0  0  0  0
   74.2537   40.9533   39.7364 C   0  0  0  0  0  0  0  0  0  0  0  0
   74.0832   42.1335   39.9930 O   0  0  0  0  0  0  0  0  0  0  0  0
   73.1928   40.0881   39.6225 N   0  0  0  0  0  0  0  0  0  0  0  0
   73.2175   38.7502   39.3107 C   0  0  0  0  0  0  0  0  0  0  0  0
   72.1926   38.0971   39.2034 O   0  0  0  0  0  0  0  0  0  0  0  0
   74.5806   38.1515   39.0570 C   0  0  0  0  0  0  0  0  0  0  0  0
   75.6583   38.9002   39.8210 C   0  0  0  0  0  0  0  0  0  0  0  0
   79.5542   41.7608   44.5108 H   0  0  0  0  0  0  0  0  0  0  0  0
   78.3234   40.7830   43.7753 H   0  0  0  0  0  0  0  0  0  0  0  0
   78.9000   44.6453   39.3966 H   0  0  0  0  0  0  0  0  0  0  0  0
   80.3715   45.2057   41.3338 H   0  0  0  0  0  0  0  0  0  0  0  0
   80.3432   43.8358   43.3708 H   0  0  0  0  0  0  0  0  0  0  0  0
   75.7596   40.4745   38.3534 H   0  0  0  0  0  0  0  0  0  0  0  0
   72.2776   40.4901   39.7833 H   0  0  0  0  0  0  0  0  0  0  0  0
   74.5649   37.1037   39.3735 H   0  0  0  0  0  0  0  0  0  0  0  0
   74.7681   38.1775   37.9791 H   0  0  0  0  0  0  0  0  0  0  0  0
   75.4727   38.7728   40.8915 H   0  0  0  0  0  0  0  0  0  0  0  0
   76.6431   38.4692   39.6137 H   0  0  0  0  0  0  0  0  0  0  0  0
  1  2  1  0  0  0  0
  1 21  1  0  0  0  0
  1 22  1  0  0  0  0
  2  3  1  0  0  0  0
  2 12  2  0  0  0  0
  3  9  2  0  0  0  0
  3  4  1  0  0  0  0
  4  5  2  0  0  0  0
  4  6  1  0  0  0  0
  6  7  1  0  0  0  0
 13  6  1  0  0  0  0
  7  8  2  0  0  0  0
  7  9  1  0  0  0  0
  9 10  1  0  0  0  0
 10 23  1  0  0  0  0
 10 11  2  0  0  0  0
 11 12  1  0  0  0  0
 11 24  1  0  0  0  0
 12 25  1  0  0  0  0
 13 26  1  0  0  0  0
 13 14  1  0  0  0  0
 13 20  1  0  0  0  0
 14 15  2  0  0  0  0
 14 16  1  0  0  0  0
 16 27  1  0  0  0  0
 16 17  1  0  0  0  0
 17 18  2  0  0  0  0
 17 19  1  0  0  0  0
 19 28  1  0  0  0  0
 19 29  1  0  0  0  0
 19 20  1  0  0  0  0
 20 30  1  0  0  0  0
 20 31  1  0  0  0  0
M  ZZC   1 n1
M  ZZC   2 c1
M  ZZC   3 c2
M  ZZC   4 c3
M  ZZC   5 o1
M  ZZC   6 n2
M  ZZC   7 c4
M  ZZC   8 o2
M  ZZC   9 c5
M  ZZC  10 c6
M  ZZC  11 c7
M  ZZC  12 c8
M  ZZC  13 c9
M  ZZC  14 c10
M  ZZC  15 o3
M  ZZC  16 n3
M  ZZC  17 c11
M  ZZC  18 o4
M  ZZC  19 c12
M  ZZC  20 c13
M  ZZC  21 h11
M  ZZC  22 h12
M  ZZC  23 h61
M  ZZC  24 h71
M  ZZC  25 h81
M  ZZC  26 h91
M  ZZC  27 h31
M  ZZC  28 h121
M  ZZC  29 h122
M  ZZC  30 h131
M  ZZC  31 h132
M  ZZM   1 40
M  ZZI   1 224
M  ZZM   2 37
M  ZZI   2 124
M  ZZM   3 37
M  ZZI   3 124
M  ZZM   4 3
M  ZZI   4 121
M  ZZM   5 7
M  ZZI   5 81
M  ZZM   6 10
M  ZZI   6 192
M  ZZM   7 3
M  ZZI   7 121
M  ZZM   8 7
M  ZZI   8 81
M  ZZM   9 37
M  ZZI   9 124
M  ZZM  10 37
M  ZZI  10 125
M  ZZM  11 37
M  ZZI  11 125
M  ZZM  12 37
M  ZZI  12 125
M  ZZM  13 1
M  ZZI  13 113
M  ZZM  14 3
M  ZZI  14 121
M  ZZM  15 7
M  ZZI  15 81
M  ZZM  16 10
M  ZZI  16 191
M  ZZM  17 3
M  ZZI  17 121
M  ZZM  18 7
M  ZZI  18 81
M  ZZM  19 1
M  ZZI  19 112
M  ZZM  20 1
M  ZZI  20 112
M  ZZM  21 28
M  ZZI  21 11
M  ZZM  22 28
M  ZZI  22 11
M  ZZM  23 5
M  ZZI  23 1
M  ZZM  24 5
M  ZZI  24 1
M  ZZM  25 5
M  ZZI  25 1
M  ZZM  26 5
M  ZZI  26 1
M  ZZM  27 28
M  ZZI  27 11
M  ZZM  28 5
M  ZZI  28 1
M  ZZM  29 5
M  ZZI  29 1
M  ZZM  30 5
M  ZZI  30 1
M  ZZM  31 5
M  ZZI  31 1
M  END
> <IX>
1

> <NAME>
Cereblon_2GQG_37.pdb

> <Score>
-18.546399

> <Natom>
31

> <Nflex>
1

> <Hbond>
-3.69459

> <Hphob>
-3.541278

> <VwInt>
-24.35312

> <Dsolv>
15.13445

> <SolEl>
6.908727

> <Eintl>
1.69349

> <RecConf>
ND

> <projPath>
Cereblon_maps/

> <NAME_>
Cereblon_2GQG_37.pdb

$$$$
