Cereblon_3MXF_15.pdb
  MOLSOFT 04032206213D

 30 32  0  0  1  0  0  0  0  0999 V2000
   77.5997   41.0778   42.0846 C   0  0  0  0  0  0  0  0  0  0  0  0
   76.9663   41.1425   40.8541 C   0  0  0  0  0  0  0  0  0  0  0  0
   77.2617   42.1497   39.9751 C   0  0  0  0  0  0  0  0  0  0  0  0
   76.4116   41.9849   38.7902 C   0  0  0  0  0  0  0  0  0  0  0  0
   76.4477   42.7007   37.7992 O   0  0  0  0  0  0  0  0  0  0  0  0
   75.5730   40.9159   39.0486 N   0  0  0  0  0  0  0  0  0  0  0  0
   74.2664   40.7569   38.3905 C   0  0  2  0  0  0  0  0  0  0  0  0
   73.2419   41.5317   39.2024 C   0  0  0  0  0  0  0  0  0  0  0  0
   73.5613   42.3817   40.0172 O   0  0  0  0  0  0  0  0  0  0  0  0
   71.9240   41.2519   38.9332 N   0  0  0  0  0  0  0  0  0  0  0  0
   71.4166   40.2427   38.1510 C   0  0  0  0  0  0  0  0  0  0  0  0
   70.2146   40.1274   37.9613 O   0  0  0  0  0  0  0  0  0  0  0  0
   72.4385   39.3235   37.5137 C   0  0  0  0  0  0  0  0  0  0  0  0
   73.7633   39.3229   38.2682 C   0  0  0  0  0  0  0  0  0  0  0  0
   75.9208   40.2514   40.2902 C   0  0  0  0  0  0  0  0  0  0  0  0
   78.1884   43.1411   40.2503 C   0  0  0  0  0  0  0  0  0  0  0  0
   78.8354   43.0734   41.4776 C   0  0  0  0  0  0  0  0  0  0  0  0
   78.5351   42.0595   42.3871 C   0  0  0  0  0  0  0  0  0  0  0  0
   77.3690   40.2942   42.7998 H   0  0  0  0  0  0  0  0  0  0  0  0
   74.3170   41.2426   37.4087 H   0  0  0  0  0  0  0  0  0  0  0  0
   71.2490   41.8585   39.3816 H   0  0  0  0  0  0  0  0  0  0  0  0
   72.0265   38.3097   37.4919 H   0  0  0  0  0  0  0  0  0  0  0  0
   72.5854   39.6497   36.4783 H   0  0  0  0  0  0  0  0  0  0  0  0
   73.6201   38.8795   39.2603 H   0  0  0  0  0  0  0  0  0  0  0  0
   74.4891   38.6933   37.7463 H   0  0  0  0  0  0  0  0  0  0  0  0
   76.3027   39.2488   40.0695 H   0  0  0  0  0  0  0  0  0  0  0  0
   75.0470   40.2057   40.9358 H   0  0  0  0  0  0  0  0  0  0  0  0
   78.3969   43.9386   39.5449 H   0  0  0  0  0  0  0  0  0  0  0  0
   79.5673   43.8307   41.7404 H   0  0  0  0  0  0  0  0  0  0  0  0
   79.0392   42.0365   43.3485 H   0  0  0  0  0  0  0  0  0  0  0  0
  1 19  1  0  0  0  0
  1 18  2  0  0  0  0
  1  2  1  0  0  0  0
  2  3  2  0  0  0  0
  2 15  1  0  0  0  0
  3 16  1  0  0  0  0
  3  4  1  0  0  0  0
  4  6  1  0  0  0  0
  4  5  2  0  0  0  0
  6 15  1  0  0  0  0
  7  6  1  0  0  0  0
  7 20  1  0  0  0  0
  7  8  1  0  0  0  0
  7 14  1  0  0  0  0
  8  9  2  0  0  0  0
  8 10  1  0  0  0  0
 10 21  1  0  0  0  0
 10 11  1  0  0  0  0
 11 12  2  0  0  0  0
 11 13  1  0  0  0  0
 13 22  1  0  0  0  0
 13 23  1  0  0  0  0
 13 14  1  0  0  0  0
 14 24  1  0  0  0  0
 14 25  1  0  0  0  0
 15 26  1  0  0  0  0
 15 27  1  0  0  0  0
 16 17  2  0  0  0  0
 16 28  1  0  0  0  0
 17 18  1  0  0  0  0
 17 29  1  0  0  0  0
 18 30  1  0  0  0  0
M  ZZC   1 c1
M  ZZC   2 c2
M  ZZC   3 c3
M  ZZC   4 c4
M  ZZC   5 o1
M  ZZC   6 n1
M  ZZC   7 c5
M  ZZC   8 c6
M  ZZC   9 o2
M  ZZC  10 n2
M  ZZC  11 c7
M  ZZC  12 o3
M  ZZC  13 c8
M  ZZC  14 c9
M  ZZC  15 c10
M  ZZC  16 c11
M  ZZC  17 c12
M  ZZC  18 c13
M  ZZC  19 h11
M  ZZC  20 h51
M  ZZC  21 h21
M  ZZC  22 h81
M  ZZC  23 h82
M  ZZC  24 h91
M  ZZC  25 h92
M  ZZC  26 h101
M  ZZC  27 h102
M  ZZC  28 h111
M  ZZC  29 h121
M  ZZC  30 h131
M  ZZM   1 37
M  ZZI   1 125
M  ZZM   2 37
M  ZZI   2 124
M  ZZM   3 37
M  ZZI   3 124
M  ZZM   4 3
M  ZZI   4 121
M  ZZM   5 7
M  ZZI   5 81
M  ZZM   6 10
M  ZZI   6 192
M  ZZM   7 1
M  ZZI   7 113
M  ZZM   8 3
M  ZZI   8 121
M  ZZM   9 7
M  ZZI   9 81
M  ZZM  10 10
M  ZZI  10 191
M  ZZM  11 3
M  ZZI  11 121
M  ZZM  12 7
M  ZZI  12 81
M  ZZM  13 1
M  ZZI  13 112
M  ZZM  14 1
M  ZZI  14 112
M  ZZM  15 1
M  ZZI  15 112
M  ZZM  16 37
M  ZZI  16 125
M  ZZM  17 37
M  ZZI  17 125
M  ZZM  18 37
M  ZZI  18 125
M  ZZM  19 5
M  ZZI  19 1
M  ZZM  20 5
M  ZZI  20 1
M  ZZM  21 28
M  ZZI  21 11
M  ZZM  22 5
M  ZZI  22 1
M  ZZM  23 5
M  ZZI  23 1
M  ZZM  24 5
M  ZZI  24 1
M  ZZM  25 5
M  ZZI  25 1
M  ZZM  26 5
M  ZZI  26 1
M  ZZM  27 5
M  ZZI  27 1
M  ZZM  28 5
M  ZZI  28 1
M  ZZM  29 5
M  ZZI  29 1
M  ZZM  30 5
M  ZZI  30 1
M  END
> <IX>
1

> <NAME>
Cereblon_3MXF_15.pdb

> <Score>
-15.762043

> <Natom>
30

> <Nflex>
1

> <Hbond>
-4.214875

> <Hphob>
-3.671152

> <VwInt>
-19.452727

> <Dsolv>
13.969399

> <SolEl>
4.991733

> <Eintl>
4.070659

> <RecConf>
ND

> <projPath>
Cereblon_maps/

> <NAME_>
Cereblon_3MXF_15.pdb

$$$$
