Cereblon_1FKH_2.pdb
  MOLSOFT 04032206183D

 29 31  0  0  1  0  0  0  0  0999 V2000
   76.3134   40.4908   40.6530 C   0  0  0  0  0  0  0  0  0  0  0  0
   75.3239   40.2830   39.7093 C   0  0  0  0  0  0  0  0  0  0  0  0
   74.4530   41.2475   39.0441 C   0  0  0  0  0  0  0  0  0  0  0  0
   74.4452   42.4325   39.3396 O   0  0  0  0  0  0  0  0  0  0  0  0
   73.6904   40.5324   38.1381 N   0  0  0  0  0  0  0  0  0  0  0  0
   73.9553   39.1816   38.2462 C   0  0  0  0  0  0  0  0  0  0  0  0
   73.4496   38.2404   37.6523 O   0  0  0  0  0  0  0  0  0  0  0  0
   75.0126   39.0425   39.2463 C   0  0  0  0  0  0  0  0  0  0  0  0
   75.6590   37.9080   39.7019 C   0  0  0  0  0  0  0  0  0  0  0  0
   76.6559   38.0923   40.6539 C   0  0  0  0  0  0  0  0  0  0  0  0
   76.9794   39.3656   41.1229 C   0  0  0  0  0  0  0  0  0  0  0  0
   72.6596   41.0706   37.2377 C   0  0  1  0  0  0  0  0  0  0  0  0
   71.3525   41.2750   37.9970 C   0  0  0  0  0  0  0  0  0  0  0  0
   71.0392   40.6196   38.9801 O   0  0  0  0  0  0  0  0  0  0  0  0
   70.4825   42.1953   37.4584 N   0  0  0  0  0  0  0  0  0  0  0  0
   70.6733   43.0438   36.3997 C   0  0  0  0  0  0  0  0  0  0  0  0
   69.8489   43.8989   36.1145 O   0  0  0  0  0  0  0  0  0  0  0  0
   71.9439   42.8324   35.6156 C   0  0  0  0  0  0  0  0  0  0  0  0
   73.0724   42.3506   36.5138 C   0  0  0  0  0  0  0  0  0  0  0  0
   76.5681   41.4852   41.0064 H   0  0  0  0  0  0  0  0  0  0  0  0
   75.4067   36.9198   39.3288 H   0  0  0  0  0  0  0  0  0  0  0  0
   77.1941   37.2307   41.0367 H   0  0  0  0  0  0  0  0  0  0  0  0
   77.7627   39.4815   41.8662 H   0  0  0  0  0  0  0  0  0  0  0  0
   72.4483   40.2998   36.4874 H   0  0  0  0  0  0  0  0  0  0  0  0
   69.6121   42.3243   37.9531 H   0  0  0  0  0  0  0  0  0  0  0  0
   71.7415   42.1143   34.8139 H   0  0  0  0  0  0  0  0  0  0  0  0
   72.2206   43.7848   35.1588 H   0  0  0  0  0  0  0  0  0  0  0  0
   73.3188   43.1434   37.2252 H   0  0  0  0  0  0  0  0  0  0  0  0
   73.9744   42.1747   35.9193 H   0  0  0  0  0  0  0  0  0  0  0  0
  1 20  1  0  0  0  0
  1  2  1  0  0  0  0
  1 11  2  0  0  0  0
  2  3  1  0  0  0  0
  2  8  2  0  0  0  0
  3  4  2  0  0  0  0
  3  5  1  0  0  0  0
  5  6  1  0  0  0  0
 12  5  1  0  0  0  0
  6  7  2  0  0  0  0
  6  8  1  0  0  0  0
  8  9  1  0  0  0  0
  9 21  1  0  0  0  0
  9 10  2  0  0  0  0
 10 22  1  0  0  0  0
 10 11  1  0  0  0  0
 11 23  1  0  0  0  0
 12 24  1  0  0  0  0
 12 13  1  0  0  0  0
 12 19  1  0  0  0  0
 13 14  2  0  0  0  0
 13 15  1  0  0  0  0
 15 25  1  0  0  0  0
 15 16  1  0  0  0  0
 16 17  2  0  0  0  0
 16 18  1  0  0  0  0
 18 26  1  0  0  0  0
 18 27  1  0  0  0  0
 18 19  1  0  0  0  0
 19 28  1  0  0  0  0
 19 29  1  0  0  0  0
M  ZZC   1 c1
M  ZZC   2 c2
M  ZZC   3 c3
M  ZZC   4 o1
M  ZZC   5 n1
M  ZZC   6 c4
M  ZZC   7 o2
M  ZZC   8 c5
M  ZZC   9 c6
M  ZZC  10 c7
M  ZZC  11 c8
M  ZZC  12 c9
M  ZZC  13 c10
M  ZZC  14 o3
M  ZZC  15 n2
M  ZZC  16 c11
M  ZZC  17 o4
M  ZZC  18 c12
M  ZZC  19 c13
M  ZZC  20 h11
M  ZZC  21 h61
M  ZZC  22 h71
M  ZZC  23 h81
M  ZZC  24 h91
M  ZZC  25 h21
M  ZZC  26 h121
M  ZZC  27 h122
M  ZZC  28 h131
M  ZZC  29 h132
M  ZZM   1 37
M  ZZI   1 125
M  ZZM   2 37
M  ZZI   2 124
M  ZZM   3 3
M  ZZI   3 121
M  ZZM   4 7
M  ZZI   4 81
M  ZZM   5 10
M  ZZI   5 192
M  ZZM   6 3
M  ZZI   6 121
M  ZZM   7 7
M  ZZI   7 81
M  ZZM   8 37
M  ZZI   8 124
M  ZZM   9 37
M  ZZI   9 125
M  ZZM  10 37
M  ZZI  10 125
M  ZZM  11 37
M  ZZI  11 125
M  ZZM  12 1
M  ZZI  12 113
M  ZZM  13 3
M  ZZI  13 121
M  ZZM  14 7
M  ZZI  14 81
M  ZZM  15 10
M  ZZI  15 191
M  ZZM  16 3
M  ZZI  16 121
M  ZZM  17 7
M  ZZI  17 81
M  ZZM  18 1
M  ZZI  18 112
M  ZZM  19 1
M  ZZI  19 112
M  ZZM  20 5
M  ZZI  20 1
M  ZZM  21 5
M  ZZI  21 1
M  ZZM  22 5
M  ZZI  22 1
M  ZZM  23 5
M  ZZI  23 1
M  ZZM  24 5
M  ZZI  24 1
M  ZZM  25 28
M  ZZI  25 11
M  ZZM  26 5
M  ZZI  26 1
M  ZZM  27 5
M  ZZI  27 1
M  ZZM  28 5
M  ZZI  28 1
M  ZZM  29 5
M  ZZI  29 1
M  END
> <IX>
1

> <NAME>
Cereblon_1FKH_2.pdb

> <Score>
-20.702762

> <Natom>
29

> <Nflex>
1

> <Hbond>
-4.572846

> <Hphob>
-3.603354

> <VwInt>
-22.373356

> <Dsolv>
13.429539

> <SolEl>
7.025279

> <Eintl>
0.575505

> <RecConf>
ND

> <projPath>
Cereblon_maps/

> <NAME_>
Cereblon_1FKH_2.pdb

$$$$
