Cereblon_4MKC_1.pdb
  MOLSOFT 04032206233D

 31 33  0  0  1  0  0  0  0  0999 V2000
   78.8180   41.6815   43.8129 N   0  0  0  0  0  0  0  0  0  0  0  0
   78.9036   42.4312   42.6297 C   0  0  0  0  0  0  0  0  0  0  0  0
   78.0993   42.1627   41.5349 C   0  0  0  0  0  0  0  0  0  0  0  0
   77.1774   41.0525   41.3300 C   0  0  0  0  0  0  0  0  0  0  0  0
   76.9936   40.1734   42.1588 O   0  0  0  0  0  0  0  0  0  0  0  0
   76.6458   41.2127   40.0658 N   0  0  0  0  0  0  0  0  0  0  0  0
   77.1660   42.3331   39.4505 C   0  0  0  0  0  0  0  0  0  0  0  0
   76.9529   42.7551   38.3213 O   0  0  0  0  0  0  0  0  0  0  0  0
   78.0967   42.9301   40.4095 C   0  0  0  0  0  0  0  0  0  0  0  0
   78.9085   44.0391   40.2875 C   0  0  0  0  0  0  0  0  0  0  0  0
   79.7264   44.3393   41.3709 C   0  0  0  0  0  0  0  0  0  0  0  0
   79.7130   43.5588   42.5286 C   0  0  0  0  0  0  0  0  0  0  0  0
   75.6259   40.3753   39.4306 C   0  0  2  0  0  0  0  0  0  0  0  0
   74.2545   40.9526   39.7381 C   0  0  0  0  0  0  0  0  0  0  0  0
   74.0836   42.1331   39.9933 O   0  0  0  0  0  0  0  0  0  0  0  0
   73.1944   40.0857   39.6296 N   0  0  0  0  0  0  0  0  0  0  0  0
   73.2198   38.7474   39.3190 C   0  0  0  0  0  0  0  0  0  0  0  0
   72.1958   38.0921   39.2169 O   0  0  0  0  0  0  0  0  0  0  0  0
   74.5829   38.1508   39.0599 C   0  0  0  0  0  0  0  0  0  0  0  0
   75.6621   38.9012   39.8198 C   0  0  0  0  0  0  0  0  0  0  0  0
   79.5444   41.7754   44.5195 H   0  0  0  0  0  0  0  0  0  0  0  0
   78.3000   40.8016   43.7863 H   0  0  0  0  0  0  0  0  0  0  0  0
   78.9001   44.6460   39.3898 H   0  0  0  0  0  0  0  0  0  0  0  0
   80.3776   45.2051   41.3235 H   0  0  0  0  0  0  0  0  0  0  0  0
   80.3492   43.8382   43.3629 H   0  0  0  0  0  0  0  0  0  0  0  0
   75.7578   40.4749   38.3520 H   0  0  0  0  0  0  0  0  0  0  0  0
   72.2790   40.4863   39.7929 H   0  0  0  0  0  0  0  0  0  0  0  0
   74.5709   37.1029   39.3761 H   0  0  0  0  0  0  0  0  0  0  0  0
   74.7663   38.1773   37.9813 H   0  0  0  0  0  0  0  0  0  0  0  0
   75.4810   38.7736   40.8910 H   0  0  0  0  0  0  0  0  0  0  0  0
   76.6468   38.4715   39.6094 H   0  0  0  0  0  0  0  0  0  0  0  0
  1  2  1  0  0  0  0
  1 21  1  0  0  0  0
  1 22  1  0  0  0  0
  2  3  1  0  0  0  0
  2 12  2  0  0  0  0
  3  9  2  0  0  0  0
  3  4  1  0  0  0  0
  4  5  2  0  0  0  0
  4  6  1  0  0  0  0
  6  7  1  0  0  0  0
 13  6  1  0  0  0  0
  7  8  2  0  0  0  0
  7  9  1  0  0  0  0
  9 10  1  0  0  0  0
 10 23  1  0  0  0  0
 10 11  2  0  0  0  0
 11 12  1  0  0  0  0
 11 24  1  0  0  0  0
 12 25  1  0  0  0  0
 13 26  1  0  0  0  0
 13 14  1  0  0  0  0
 13 20  1  0  0  0  0
 14 15  2  0  0  0  0
 14 16  1  0  0  0  0
 16 27  1  0  0  0  0
 16 17  1  0  0  0  0
 17 18  2  0  0  0  0
 17 19  1  0  0  0  0
 19 28  1  0  0  0  0
 19 29  1  0  0  0  0
 19 20  1  0  0  0  0
 20 30  1  0  0  0  0
 20 31  1  0  0  0  0
M  ZZC   1 n1
M  ZZC   2 c1
M  ZZC   3 c2
M  ZZC   4 c3
M  ZZC   5 o1
M  ZZC   6 n2
M  ZZC   7 c4
M  ZZC   8 o2
M  ZZC   9 c5
M  ZZC  10 c6
M  ZZC  11 c7
M  ZZC  12 c8
M  ZZC  13 c9
M  ZZC  14 c10
M  ZZC  15 o3
M  ZZC  16 n3
M  ZZC  17 c11
M  ZZC  18 o4
M  ZZC  19 c12
M  ZZC  20 c13
M  ZZC  21 h11
M  ZZC  22 h12
M  ZZC  23 h61
M  ZZC  24 h71
M  ZZC  25 h81
M  ZZC  26 h91
M  ZZC  27 h31
M  ZZC  28 h121
M  ZZC  29 h122
M  ZZC  30 h131
M  ZZC  31 h132
M  ZZM   1 40
M  ZZI   1 224
M  ZZM   2 37
M  ZZI   2 124
M  ZZM   3 37
M  ZZI   3 124
M  ZZM   4 3
M  ZZI   4 121
M  ZZM   5 7
M  ZZI   5 81
M  ZZM   6 10
M  ZZI   6 192
M  ZZM   7 3
M  ZZI   7 121
M  ZZM   8 7
M  ZZI   8 81
M  ZZM   9 37
M  ZZI   9 124
M  ZZM  10 37
M  ZZI  10 125
M  ZZM  11 37
M  ZZI  11 125
M  ZZM  12 37
M  ZZI  12 125
M  ZZM  13 1
M  ZZI  13 113
M  ZZM  14 3
M  ZZI  14 121
M  ZZM  15 7
M  ZZI  15 81
M  ZZM  16 10
M  ZZI  16 191
M  ZZM  17 3
M  ZZI  17 121
M  ZZM  18 7
M  ZZI  18 81
M  ZZM  19 1
M  ZZI  19 112
M  ZZM  20 1
M  ZZI  20 112
M  ZZM  21 28
M  ZZI  21 11
M  ZZM  22 28
M  ZZI  22 11
M  ZZM  23 5
M  ZZI  23 1
M  ZZM  24 5
M  ZZI  24 1
M  ZZM  25 5
M  ZZI  25 1
M  ZZM  26 5
M  ZZI  26 1
M  ZZM  27 28
M  ZZI  27 11
M  ZZM  28 5
M  ZZI  28 1
M  ZZM  29 5
M  ZZI  29 1
M  ZZM  30 5
M  ZZI  30 1
M  ZZM  31 5
M  ZZI  31 1
M  END
> <IX>
1

> <NAME>
Cereblon_4MKC_1.pdb

> <Score>
-18.366406

> <Natom>
31

> <Nflex>
1

> <Hbond>
-3.623646

> <Hphob>
-3.570966

> <VwInt>
-24.30955

> <Dsolv>
15.149622

> <SolEl>
6.89841

> <Eintl>
1.647249

> <RecConf>
ND

> <projPath>
Cereblon_maps/

> <NAME_>
Cereblon_4MKC_1.pdb

$$$$
