Cereblon_4IPF_7.pdb
  MOLSOFT 04032206223D

 30 32  0  0  1  0  0  0  0  0999 V2000
   72.1115   42.8177   35.2686 C   0  0  0  0  0  0  0  0  0  0  0  0
   72.2608   42.1191   36.4498 C   0  0  0  0  0  0  0  0  0  0  0  0
   71.1961   41.9570   37.2899 C   0  0  0  0  0  0  0  0  0  0  0  0
   71.6553   41.2169   38.4721 C   0  0  0  0  0  0  0  0  0  0  0  0
   70.9350   40.8656   39.3962 O   0  0  0  0  0  0  0  0  0  0  0  0
   73.0123   41.0122   38.3032 N   0  0  0  0  0  0  0  0  0  0  0  0
   73.8767   40.3400   39.2808 C   0  0  2  0  0  0  0  0  0  0  0  0
   75.1709   41.1188   39.5269 C   0  0  0  0  0  0  0  0  0  0  0  0
   75.1908   42.3366   39.6268 O   0  0  0  0  0  0  0  0  0  0  0  0
   76.3079   40.3706   39.7372 N   0  0  0  0  0  0  0  0  0  0  0  0
   76.4062   39.0142   39.9227 C   0  0  0  0  0  0  0  0  0  0  0  0
   77.4663   38.4721   40.1897 O   0  0  0  0  0  0  0  0  0  0  0  0
   75.1114   38.2472   39.8483 C   0  0  0  0  0  0  0  0  0  0  0  0
   74.1550   38.8991   38.8694 C   0  0  0  0  0  0  0  0  0  0  0  0
   73.4808   41.4913   37.0123 C   0  0  0  0  0  0  0  0  0  0  0  0
   69.9447   42.4777   37.0125 C   0  0  0  0  0  0  0  0  0  0  0  0
   69.7920   43.1865   35.8332 C   0  0  0  0  0  0  0  0  0  0  0  0
   70.8717   43.3677   34.9827 C   0  0  0  0  0  0  0  0  0  0  0  0
   72.9431   42.9416   34.5908 H   0  0  0  0  0  0  0  0  0  0  0  0
   73.3400   40.3263   40.2357 H   0  0  0  0  0  0  0  0  0  0  0  0
   77.1780   40.8832   39.8339 H   0  0  0  0  0  0  0  0  0  0  0  0
   75.3292   37.2237   39.5271 H   0  0  0  0  0  0  0  0  0  0  0  0
   74.6760   38.2032   40.8512 H   0  0  0  0  0  0  0  0  0  0  0  0
   74.5781   38.8591   37.8622 H   0  0  0  0  0  0  0  0  0  0  0  0
   73.2193   38.3316   38.8310 H   0  0  0  0  0  0  0  0  0  0  0  0
   73.8061   40.6454   36.3986 H   0  0  0  0  0  0  0  0  0  0  0  0
   74.2841   42.2240   37.1420 H   0  0  0  0  0  0  0  0  0  0  0  0
   69.1147   42.3633   37.6941 H   0  0  0  0  0  0  0  0  0  0  0  0
   68.8284   43.6100   35.5729 H   0  0  0  0  0  0  0  0  0  0  0  0
   70.7404   43.9593   34.0880 H   0  0  0  0  0  0  0  0  0  0  0  0
  1 19  1  0  0  0  0
  1 18  2  0  0  0  0
  1  2  1  0  0  0  0
  2  3  2  0  0  0  0
  2 15  1  0  0  0  0
  3 16  1  0  0  0  0
  3  4  1  0  0  0  0
  4  6  1  0  0  0  0
  4  5  2  0  0  0  0
  6 15  1  0  0  0  0
  7  6  1  0  0  0  0
  7 20  1  0  0  0  0
  7  8  1  0  0  0  0
  7 14  1  0  0  0  0
  8  9  2  0  0  0  0
  8 10  1  0  0  0  0
 10 21  1  0  0  0  0
 10 11  1  0  0  0  0
 11 12  2  0  0  0  0
 11 13  1  0  0  0  0
 13 22  1  0  0  0  0
 13 23  1  0  0  0  0
 13 14  1  0  0  0  0
 14 24  1  0  0  0  0
 14 25  1  0  0  0  0
 15 26  1  0  0  0  0
 15 27  1  0  0  0  0
 16 17  2  0  0  0  0
 16 28  1  0  0  0  0
 17 18  1  0  0  0  0
 17 29  1  0  0  0  0
 18 30  1  0  0  0  0
M  ZZC   1 c1
M  ZZC   2 c2
M  ZZC   3 c3
M  ZZC   4 c4
M  ZZC   5 o1
M  ZZC   6 n1
M  ZZC   7 c5
M  ZZC   8 c6
M  ZZC   9 o2
M  ZZC  10 n2
M  ZZC  11 c7
M  ZZC  12 o3
M  ZZC  13 c8
M  ZZC  14 c9
M  ZZC  15 c10
M  ZZC  16 c11
M  ZZC  17 c12
M  ZZC  18 c13
M  ZZC  19 h11
M  ZZC  20 h51
M  ZZC  21 h21
M  ZZC  22 h81
M  ZZC  23 h82
M  ZZC  24 h91
M  ZZC  25 h92
M  ZZC  26 h101
M  ZZC  27 h102
M  ZZC  28 h111
M  ZZC  29 h121
M  ZZC  30 h131
M  ZZM   1 37
M  ZZI   1 125
M  ZZM   2 37
M  ZZI   2 124
M  ZZM   3 37
M  ZZI   3 124
M  ZZM   4 3
M  ZZI   4 121
M  ZZM   5 7
M  ZZI   5 81
M  ZZM   6 10
M  ZZI   6 192
M  ZZM   7 1
M  ZZI   7 113
M  ZZM   8 3
M  ZZI   8 121
M  ZZM   9 7
M  ZZI   9 81
M  ZZM  10 10
M  ZZI  10 191
M  ZZM  11 3
M  ZZI  11 121
M  ZZM  12 7
M  ZZI  12 81
M  ZZM  13 1
M  ZZI  13 112
M  ZZM  14 1
M  ZZI  14 112
M  ZZM  15 1
M  ZZI  15 112
M  ZZM  16 37
M  ZZI  16 125
M  ZZM  17 37
M  ZZI  17 125
M  ZZM  18 37
M  ZZI  18 125
M  ZZM  19 5
M  ZZI  19 1
M  ZZM  20 5
M  ZZI  20 1
M  ZZM  21 28
M  ZZI  21 11
M  ZZM  22 5
M  ZZI  22 1
M  ZZM  23 5
M  ZZI  23 1
M  ZZM  24 5
M  ZZI  24 1
M  ZZM  25 5
M  ZZI  25 1
M  ZZM  26 5
M  ZZI  26 1
M  ZZM  27 5
M  ZZI  27 1
M  ZZM  28 5
M  ZZI  28 1
M  ZZM  29 5
M  ZZI  29 1
M  ZZM  30 5
M  ZZI  30 1
M  END
> <IX>
1

> <NAME>
Cereblon_4IPF_7.pdb

> <Score>
-10.036749

> <Natom>
30

> <Nflex>
1

> <Hbond>
-2.300577

> <Hphob>
-3.691305

> <VwInt>
-18.522769

> <Dsolv>
11.544095

> <SolEl>
9.989835

> <Eintl>
1.547153

> <RecConf>
ND

> <projPath>
Cereblon_maps/

> <NAME_>
Cereblon_4IPF_7.pdb

$$$$
