Cereblon_5J8O_19.pdb
  MOLSOFT 04032206253D

 29 31  0  0  1  0  0  0  0  0999 V2000
   79.8271   43.6088   42.5402 C   0  0  0  0  0  0  0  0  0  0  0  0
   79.0076   42.4947   42.6693 C   0  0  0  0  0  0  0  0  0  0  0  0
   78.1873   42.1981   41.5945 C   0  0  0  0  0  0  0  0  0  0  0  0
   77.2696   41.0798   41.4113 C   0  0  0  0  0  0  0  0  0  0  0  0
   77.0890   40.2205   42.2603 O   0  0  0  0  0  0  0  0  0  0  0  0
   76.7272   41.2215   40.1468 N   0  0  0  0  0  0  0  0  0  0  0  0
   77.2225   42.3481   39.5221 C   0  0  0  0  0  0  0  0  0  0  0  0
   76.9880   42.7655   38.3953 O   0  0  0  0  0  0  0  0  0  0  0  0
   78.1593   42.9596   40.4651 C   0  0  0  0  0  0  0  0  0  0  0  0
   78.9594   44.0752   40.3205 C   0  0  0  0  0  0  0  0  0  0  0  0
   79.8032   44.3850   41.3815 C   0  0  0  0  0  0  0  0  0  0  0  0
   75.7185   40.3662   39.5156 C   0  0  2  0  0  0  0  0  0  0  0  0
   74.3390   40.9342   39.8047 C   0  0  0  0  0  0  0  0  0  0  0  0
   74.1495   42.1199   40.0193 O   0  0  0  0  0  0  0  0  0  0  0  0
   73.2887   40.0522   39.7267 N   0  0  0  0  0  0  0  0  0  0  0  0
   73.3272   38.7072   39.4502 C   0  0  0  0  0  0  0  0  0  0  0  0
   72.3113   38.0350   39.3827 O   0  0  0  0  0  0  0  0  0  0  0  0
   74.6925   38.1240   39.1810 C   0  0  0  0  0  0  0  0  0  0  0  0
   75.7734   38.8953   39.9176 C   0  0  0  0  0  0  0  0  0  0  0  0
   80.4950   43.8784   43.3533 H   0  0  0  0  0  0  0  0  0  0  0  0
   79.0199   41.8803   43.5650 H   0  0  0  0  0  0  0  0  0  0  0  0
   78.9283   44.6751   39.4194 H   0  0  0  0  0  0  0  0  0  0  0  0
   80.4523   45.2502   41.3105 H   0  0  0  0  0  0  0  0  0  0  0  0
   75.8569   40.4530   38.4362 H   0  0  0  0  0  0  0  0  0  0  0  0
   72.3699   40.4469   39.8872 H   0  0  0  0  0  0  0  0  0  0  0  0
   74.6984   37.0800   39.5101 H   0  0  0  0  0  0  0  0  0  0  0  0
   74.8584   38.1411   38.0995 H   0  0  0  0  0  0  0  0  0  0  0  0
   76.7593   38.4743   39.6951 H   0  0  0  0  0  0  0  0  0  0  0  0
   75.6102   38.7747   40.9922 H   0  0  0  0  0  0  0  0  0  0  0  0
  1 20  1  0  0  0  0
  1  2  1  0  0  0  0
  1 11  2  0  0  0  0
  2 21  1  0  0  0  0
  2  3  2  0  0  0  0
  3  4  1  0  0  0  0
  3  9  1  0  0  0  0
  4  5  2  0  0  0  0
  4  6  1  0  0  0  0
  6  7  1  0  0  0  0
 12  6  1  0  0  0  0
  7  8  2  0  0  0  0
  7  9  1  0  0  0  0
  9 10  2  0  0  0  0
 10 22  1  0  0  0  0
 10 11  1  0  0  0  0
 11 23  1  0  0  0  0
 12 24  1  0  0  0  0
 12 13  1  0  0  0  0
 12 19  1  0  0  0  0
 13 14  2  0  0  0  0
 13 15  1  0  0  0  0
 15 25  1  0  0  0  0
 15 16  1  0  0  0  0
 16 17  2  0  0  0  0
 16 18  1  0  0  0  0
 18 26  1  0  0  0  0
 18 27  1  0  0  0  0
 18 19  1  0  0  0  0
 19 28  1  0  0  0  0
 19 29  1  0  0  0  0
M  ZZC   1 c1
M  ZZC   2 c2
M  ZZC   3 c3
M  ZZC   4 c4
M  ZZC   5 o1
M  ZZC   6 n1
M  ZZC   7 c5
M  ZZC   8 o2
M  ZZC   9 c6
M  ZZC  10 c7
M  ZZC  11 c8
M  ZZC  12 c9
M  ZZC  13 c10
M  ZZC  14 o3
M  ZZC  15 n2
M  ZZC  16 c11
M  ZZC  17 o4
M  ZZC  18 c12
M  ZZC  19 c13
M  ZZC  20 h11
M  ZZC  21 h21
M  ZZC  22 h71
M  ZZC  23 h81
M  ZZC  24 h91
M  ZZC  25 h01
M  ZZC  26 h121
M  ZZC  27 h122
M  ZZC  28 h131
M  ZZC  29 h132
M  ZZM   1 37
M  ZZI   1 125
M  ZZM   2 37
M  ZZI   2 125
M  ZZM   3 37
M  ZZI   3 124
M  ZZM   4 3
M  ZZI   4 121
M  ZZM   5 7
M  ZZI   5 81
M  ZZM   6 10
M  ZZI   6 192
M  ZZM   7 3
M  ZZI   7 121
M  ZZM   8 7
M  ZZI   8 81
M  ZZM   9 37
M  ZZI   9 124
M  ZZM  10 37
M  ZZI  10 125
M  ZZM  11 37
M  ZZI  11 125
M  ZZM  12 1
M  ZZI  12 113
M  ZZM  13 3
M  ZZI  13 121
M  ZZM  14 7
M  ZZI  14 81
M  ZZM  15 10
M  ZZI  15 191
M  ZZM  16 3
M  ZZI  16 121
M  ZZM  17 7
M  ZZI  17 81
M  ZZM  18 1
M  ZZI  18 112
M  ZZM  19 1
M  ZZI  19 112
M  ZZM  20 5
M  ZZI  20 1
M  ZZM  21 5
M  ZZI  21 1
M  ZZM  22 5
M  ZZI  22 1
M  ZZM  23 5
M  ZZI  23 1
M  ZZM  24 5
M  ZZI  24 1
M  ZZM  25 28
M  ZZI  25 11
M  ZZM  26 5
M  ZZI  26 1
M  ZZM  27 5
M  ZZI  27 1
M  ZZM  28 5
M  ZZI  28 1
M  ZZM  29 5
M  ZZI  29 1
M  END
> <IX>
1

> <NAME>
Cereblon_5J8O_19.pdb

> <Score>
-19.429869

> <Natom>
29

> <Nflex>
1

> <Hbond>
-3.360429

> <Hphob>
-3.52798

> <VwInt>
-22.733633

> <Dsolv>
12.012002

> <SolEl>
5.579612

> <Eintl>
1.463086

> <RecConf>
ND

> <projPath>
Cereblon_maps/

> <NAME_>
Cereblon_5J8O_19.pdb

$$$$
