Cereblon_6QJU_5.pdb
  MOLSOFT 04032206293D

 30 32  0  0  1  0  0  0  0  0999 V2000
   78.9633   42.3510   42.8084 C   0  0  0  0  0  0  0  0  0  0  0  0
   78.1563   42.0574   41.7214 C   0  0  0  0  0  0  0  0  0  0  0  0
   78.1637   42.8629   40.6133 C   0  0  0  0  0  0  0  0  0  0  0  0
   77.2331   42.3025   39.6261 C   0  0  0  0  0  0  0  0  0  0  0  0
   77.0148   42.7689   38.5153 O   0  0  0  0  0  0  0  0  0  0  0  0
   76.7080   41.1582   40.1948 N   0  0  0  0  0  0  0  0  0  0  0  0
   75.6929   40.3318   39.5365 C   0  0  2  0  0  0  0  0  0  0  0  0
   74.3103   40.9177   39.7960 C   0  0  0  0  0  0  0  0  0  0  0  0
   74.1239   42.1057   40.0022 O   0  0  0  0  0  0  0  0  0  0  0  0
   73.2543   40.0437   39.7112 N   0  0  0  0  0  0  0  0  0  0  0  0
   73.2842   38.6945   39.4591 C   0  0  0  0  0  0  0  0  0  0  0  0
   72.2637   38.0285   39.3996 O   0  0  0  0  0  0  0  0  0  0  0  0
   74.6466   38.0972   39.2083 C   0  0  0  0  0  0  0  0  0  0  0  0
   75.7299   38.8643   39.9455 C   0  0  0  0  0  0  0  0  0  0  0  0
   77.2312   40.9126   41.5290 C   0  0  0  0  0  0  0  0  0  0  0  0
   78.9694   43.9795   40.5049 C   0  0  0  0  0  0  0  0  0  0  0  0
   79.7912   44.2709   41.5848 C   0  0  0  0  0  0  0  0  0  0  0  0
   79.7872   43.4670   42.7228 C   0  0  0  0  0  0  0  0  0  0  0  0
   78.9633   41.7256   43.6966 H   0  0  0  0  0  0  0  0  0  0  0  0
   75.8572   40.4216   38.4604 H   0  0  0  0  0  0  0  0  0  0  0  0
   72.3374   40.4482   39.8551 H   0  0  0  0  0  0  0  0  0  0  0  0
   74.6396   37.0557   39.5449 H   0  0  0  0  0  0  0  0  0  0  0  0
   74.8233   38.1039   38.1281 H   0  0  0  0  0  0  0  0  0  0  0  0
   75.5741   38.7599   41.0240 H   0  0  0  0  0  0  0  0  0  0  0  0
   76.7113   38.4319   39.7240 H   0  0  0  0  0  0  0  0  0  0  0  0
   77.7725   39.9606   41.5420 H   0  0  0  0  0  0  0  0  0  0  0  0
   76.4219   40.9140   42.2621 H   0  0  0  0  0  0  0  0  0  0  0  0
   78.9575   44.5979   39.6148 H   0  0  0  0  0  0  0  0  0  0  0  0
   80.4389   45.1392   41.5454 H   0  0  0  0  0  0  0  0  0  0  0  0
   80.4376   43.7160   43.5561 H   0  0  0  0  0  0  0  0  0  0  0  0
  1 19  1  0  0  0  0
  1 18  2  0  0  0  0
  1  2  1  0  0  0  0
  2  3  2  0  0  0  0
  2 15  1  0  0  0  0
  3 16  1  0  0  0  0
  3  4  1  0  0  0  0
  4  6  1  0  0  0  0
  4  5  2  0  0  0  0
  6 15  1  0  0  0  0
  7  6  1  0  0  0  0
  7 20  1  0  0  0  0
  7  8  1  0  0  0  0
  7 14  1  0  0  0  0
  8  9  2  0  0  0  0
  8 10  1  0  0  0  0
 10 21  1  0  0  0  0
 10 11  1  0  0  0  0
 11 12  2  0  0  0  0
 11 13  1  0  0  0  0
 13 22  1  0  0  0  0
 13 23  1  0  0  0  0
 13 14  1  0  0  0  0
 14 24  1  0  0  0  0
 14 25  1  0  0  0  0
 15 26  1  0  0  0  0
 15 27  1  0  0  0  0
 16 17  2  0  0  0  0
 16 28  1  0  0  0  0
 17 18  1  0  0  0  0
 17 29  1  0  0  0  0
 18 30  1  0  0  0  0
M  ZZC   1 c1
M  ZZC   2 c2
M  ZZC   3 c3
M  ZZC   4 c4
M  ZZC   5 o1
M  ZZC   6 n1
M  ZZC   7 c5
M  ZZC   8 c6
M  ZZC   9 o2
M  ZZC  10 n2
M  ZZC  11 c7
M  ZZC  12 o3
M  ZZC  13 c8
M  ZZC  14 c9
M  ZZC  15 c10
M  ZZC  16 c11
M  ZZC  17 c12
M  ZZC  18 c13
M  ZZC  19 h11
M  ZZC  20 h51
M  ZZC  21 h21
M  ZZC  22 h81
M  ZZC  23 h82
M  ZZC  24 h91
M  ZZC  25 h92
M  ZZC  26 h101
M  ZZC  27 h102
M  ZZC  28 h111
M  ZZC  29 h121
M  ZZC  30 h131
M  ZZM   1 37
M  ZZI   1 125
M  ZZM   2 37
M  ZZI   2 124
M  ZZM   3 37
M  ZZI   3 124
M  ZZM   4 3
M  ZZI   4 121
M  ZZM   5 7
M  ZZI   5 81
M  ZZM   6 10
M  ZZI   6 192
M  ZZM   7 1
M  ZZI   7 113
M  ZZM   8 3
M  ZZI   8 121
M  ZZM   9 7
M  ZZI   9 81
M  ZZM  10 10
M  ZZI  10 191
M  ZZM  11 3
M  ZZI  11 121
M  ZZM  12 7
M  ZZI  12 81
M  ZZM  13 1
M  ZZI  13 112
M  ZZM  14 1
M  ZZI  14 112
M  ZZM  15 1
M  ZZI  15 112
M  ZZM  16 37
M  ZZI  16 125
M  ZZM  17 37
M  ZZI  17 125
M  ZZM  18 37
M  ZZI  18 125
M  ZZM  19 5
M  ZZI  19 1
M  ZZM  20 5
M  ZZI  20 1
M  ZZM  21 28
M  ZZI  21 11
M  ZZM  22 5
M  ZZI  22 1
M  ZZM  23 5
M  ZZI  23 1
M  ZZM  24 5
M  ZZI  24 1
M  ZZM  25 5
M  ZZI  25 1
M  ZZM  26 5
M  ZZI  26 1
M  ZZM  27 5
M  ZZI  27 1
M  ZZM  28 5
M  ZZI  28 1
M  ZZM  29 5
M  ZZI  29 1
M  ZZM  30 5
M  ZZI  30 1
M  END
> <IX>
1

> <NAME>
Cereblon_6QJU_5.pdb

> <Score>
-18.602911

> <Natom>
30

> <Nflex>
1

> <Hbond>
-3.226544

> <Hphob>
-3.892959

> <VwInt>
-21.104613

> <Dsolv>
10.917819

> <SolEl>
5.845115

> <Eintl>
1.045003

> <RecConf>
ND

> <projPath>
Cereblon_maps/

> <NAME_>
Cereblon_6QJU_5.pdb

$$$$
