Cereblon_5J8O_14.pdb
  MOLSOFT 04032206253D

 31 33  0  0  1  0  0  0  0  0999 V2000
   81.6206   53.0798   19.7027 N   0  0  0  0  0  0  0  0  0  0  0  0
   81.9346   54.4445   19.7372 C   0  0  0  0  0  0  0  0  0  0  0  0
   81.2331   55.3403   20.5257 C   0  0  0  0  0  0  0  0  0  0  0  0
   80.0316   55.1265   21.3277 C   0  0  0  0  0  0  0  0  0  0  0  0
   79.4239   54.0673   21.3985 O   0  0  0  0  0  0  0  0  0  0  0  0
   79.7626   56.3275   21.9470 N   0  0  0  0  0  0  0  0  0  0  0  0
   80.6760   57.2936   21.5793 C   0  0  0  0  0  0  0  0  0  0  0  0
   80.7504   58.4695   21.9046 O   0  0  0  0  0  0  0  0  0  0  0  0
   81.6142   56.6402   20.6702 C   0  0  0  0  0  0  0  0  0  0  0  0
   82.7318   57.1532   20.0389 C   0  0  0  0  0  0  0  0  0  0  0  0
   83.4643   56.2713   19.2542 C   0  0  0  0  0  0  0  0  0  0  0  0
   83.0810   54.9354   19.1254 C   0  0  0  0  0  0  0  0  0  0  0  0
   78.6187   56.5127   22.8394 C   0  0  2  0  0  0  0  0  0  0  0  0
   77.4690   57.1887   22.1171 C   0  0  0  0  0  0  0  0  0  0  0  0
   77.3348   57.1812   20.9024 O   0  0  0  0  0  0  0  0  0  0  0  0
   76.5180   57.7377   22.9444 N   0  0  0  0  0  0  0  0  0  0  0  0
   76.4984   57.7892   24.3176 C   0  0  0  0  0  0  0  0  0  0  0  0
   75.5304   58.2092   24.9309 O   0  0  0  0  0  0  0  0  0  0  0  0
   77.7199   57.2478   25.0225 C   0  0  0  0  0  0  0  0  0  0  0  0
   78.9345   57.2866   24.1155 C   0  0  0  0  0  0  0  0  0  0  0  0
   82.0400   52.5312   18.9570 H   0  0  0  0  0  0  0  0  0  0  0  0
   80.6538   52.8448   19.9267 H   0  0  0  0  0  0  0  0  0  0  0  0
   83.0316   58.1897   20.1599 H   0  0  0  0  0  0  0  0  0  0  0  0
   84.3587   56.6216   18.7462 H   0  0  0  0  0  0  0  0  0  0  0  0
   83.6911   54.2624   18.5316 H   0  0  0  0  0  0  0  0  0  0  0  0
   78.2530   55.5157   23.0998 H   0  0  0  0  0  0  0  0  0  0  0  0
   75.7249   58.1576   22.4781 H   0  0  0  0  0  0  0  0  0  0  0  0
   77.9055   57.8461   25.9202 H   0  0  0  0  0  0  0  0  0  0  0  0
   77.5101   56.2220   25.3347 H   0  0  0  0  0  0  0  0  0  0  0  0
   79.7970   56.8536   24.6300 H   0  0  0  0  0  0  0  0  0  0  0  0
   79.1862   58.3291   23.8930 H   0  0  0  0  0  0  0  0  0  0  0  0
  1  2  1  0  0  0  0
  1 21  1  0  0  0  0
  1 22  1  0  0  0  0
  2  3  1  0  0  0  0
  2 12  2  0  0  0  0
  3  9  2  0  0  0  0
  3  4  1  0  0  0  0
  4  5  2  0  0  0  0
  4  6  1  0  0  0  0
  6  7  1  0  0  0  0
 13  6  1  0  0  0  0
  7  8  2  0  0  0  0
  7  9  1  0  0  0  0
  9 10  1  0  0  0  0
 10 23  1  0  0  0  0
 10 11  2  0  0  0  0
 11 12  1  0  0  0  0
 11 24  1  0  0  0  0
 12 25  1  0  0  0  0
 13 26  1  0  0  0  0
 13 14  1  0  0  0  0
 13 20  1  0  0  0  0
 14 15  2  0  0  0  0
 14 16  1  0  0  0  0
 16 27  1  0  0  0  0
 16 17  1  0  0  0  0
 17 18  2  0  0  0  0
 17 19  1  0  0  0  0
 19 28  1  0  0  0  0
 19 29  1  0  0  0  0
 19 20  1  0  0  0  0
 20 30  1  0  0  0  0
 20 31  1  0  0  0  0
M  ZZC   1 n1
M  ZZC   2 c1
M  ZZC   3 c2
M  ZZC   4 c3
M  ZZC   5 o1
M  ZZC   6 n2
M  ZZC   7 c4
M  ZZC   8 o2
M  ZZC   9 c5
M  ZZC  10 c6
M  ZZC  11 c7
M  ZZC  12 c8
M  ZZC  13 c9
M  ZZC  14 c10
M  ZZC  15 o3
M  ZZC  16 n3
M  ZZC  17 c11
M  ZZC  18 o4
M  ZZC  19 c12
M  ZZC  20 c13
M  ZZC  21 h11
M  ZZC  22 h12
M  ZZC  23 h61
M  ZZC  24 h71
M  ZZC  25 h81
M  ZZC  26 h91
M  ZZC  27 h31
M  ZZC  28 h121
M  ZZC  29 h122
M  ZZC  30 h131
M  ZZC  31 h132
M  ZZM   1 40
M  ZZI   1 224
M  ZZM   2 37
M  ZZI   2 124
M  ZZM   3 37
M  ZZI   3 124
M  ZZM   4 3
M  ZZI   4 121
M  ZZM   5 7
M  ZZI   5 81
M  ZZM   6 10
M  ZZI   6 192
M  ZZM   7 3
M  ZZI   7 121
M  ZZM   8 7
M  ZZI   8 81
M  ZZM   9 37
M  ZZI   9 124
M  ZZM  10 37
M  ZZI  10 125
M  ZZM  11 37
M  ZZI  11 125
M  ZZM  12 37
M  ZZI  12 125
M  ZZM  13 1
M  ZZI  13 113
M  ZZM  14 3
M  ZZI  14 121
M  ZZM  15 7
M  ZZI  15 81
M  ZZM  16 10
M  ZZI  16 191
M  ZZM  17 3
M  ZZI  17 121
M  ZZM  18 7
M  ZZI  18 81
M  ZZM  19 1
M  ZZI  19 112
M  ZZM  20 1
M  ZZI  20 112
M  ZZM  21 28
M  ZZI  21 11
M  ZZM  22 28
M  ZZI  22 11
M  ZZM  23 5
M  ZZI  23 1
M  ZZM  24 5
M  ZZI  24 1
M  ZZM  25 5
M  ZZI  25 1
M  ZZM  26 5
M  ZZI  26 1
M  ZZM  27 28
M  ZZI  27 11
M  ZZM  28 5
M  ZZI  28 1
M  ZZM  29 5
M  ZZI  29 1
M  ZZM  30 5
M  ZZI  30 1
M  ZZM  31 5
M  ZZI  31 1
M  END
> <IX>
1

> <NAME>
Cereblon_5J8O_14.pdb

> <Score>
-23.34008

> <Natom>
31

> <Nflex>
1

> <Hbond>
-4.560194

> <Hphob>
-3.267124

> <VwInt>
-24.61609

> <Dsolv>
13.916243

> <SolEl>
5.241554

> <Eintl>
0.842775

> <RecConf>
ND

> <projPath>
Cereblon_maps/

> <NAME_>
Cereblon_5J8O_14.pdb

$$$$
