Cereblon_7NQ8_4.pdb
  MOLSOFT 04032206303D

 30 32  0  0  1  0  0  0  0  0999 V2000
   78.9622   42.3485   42.8101 C   0  0  0  0  0  0  0  0  0  0  0  0
   78.1558   42.0561   41.7227 C   0  0  0  0  0  0  0  0  0  0  0  0
   78.1633   42.8632   40.6158 C   0  0  0  0  0  0  0  0  0  0  0  0
   77.2334   42.3033   39.6274 C   0  0  0  0  0  0  0  0  0  0  0  0
   77.0147   42.7710   38.5173 O   0  0  0  0  0  0  0  0  0  0  0  0
   76.7082   41.1585   40.1950 N   0  0  0  0  0  0  0  0  0  0  0  0
   75.6942   40.3317   39.5356 C   0  0  2  0  0  0  0  0  0  0  0  0
   74.3113   40.9168   39.7944 C   0  0  0  0  0  0  0  0  0  0  0  0
   74.1240   42.1046   40.0012 O   0  0  0  0  0  0  0  0  0  0  0  0
   73.2555   40.0425   39.7092 N   0  0  0  0  0  0  0  0  0  0  0  0
   73.2868   38.6929   39.4595 C   0  0  0  0  0  0  0  0  0  0  0  0
   72.2667   38.0260   39.4037 O   0  0  0  0  0  0  0  0  0  0  0  0
   74.6492   38.0963   39.2075 C   0  0  0  0  0  0  0  0  0  0  0  0
   75.7320   38.8640   39.9444 C   0  0  0  0  0  0  0  0  0  0  0  0
   77.2315   40.9111   41.5288 C   0  0  0  0  0  0  0  0  0  0  0  0
   78.9683   43.9804   40.5089 C   0  0  0  0  0  0  0  0  0  0  0  0
   79.7895   44.2709   41.5897 C   0  0  0  0  0  0  0  0  0  0  0  0
   79.7852   43.4653   42.7264 C   0  0  0  0  0  0  0  0  0  0  0  0
   78.9624   41.7221   43.6975 H   0  0  0  0  0  0  0  0  0  0  0  0
   75.8586   40.4224   38.4597 H   0  0  0  0  0  0  0  0  0  0  0  0
   72.3383   40.4464   39.8522 H   0  0  0  0  0  0  0  0  0  0  0  0
   74.6430   37.0546   39.5438 H   0  0  0  0  0  0  0  0  0  0  0  0
   74.8250   38.1032   38.1271 H   0  0  0  0  0  0  0  0  0  0  0  0
   75.5766   38.7593   41.0230 H   0  0  0  0  0  0  0  0  0  0  0  0
   76.7136   38.4322   39.7229 H   0  0  0  0  0  0  0  0  0  0  0  0
   77.7728   39.9591   41.5412 H   0  0  0  0  0  0  0  0  0  0  0  0
   76.4215   40.9119   42.2612 H   0  0  0  0  0  0  0  0  0  0  0  0
   78.9561   44.6002   39.6198 H   0  0  0  0  0  0  0  0  0  0  0  0
   80.4364   45.1399   41.5522 H   0  0  0  0  0  0  0  0  0  0  0  0
   80.4351   43.7138   43.5603 H   0  0  0  0  0  0  0  0  0  0  0  0
  1 19  1  0  0  0  0
  1 18  2  0  0  0  0
  1  2  1  0  0  0  0
  2  3  2  0  0  0  0
  2 15  1  0  0  0  0
  3 16  1  0  0  0  0
  3  4  1  0  0  0  0
  4  6  1  0  0  0  0
  4  5  2  0  0  0  0
  6 15  1  0  0  0  0
  7  6  1  0  0  0  0
  7 20  1  0  0  0  0
  7  8  1  0  0  0  0
  7 14  1  0  0  0  0
  8  9  2  0  0  0  0
  8 10  1  0  0  0  0
 10 21  1  0  0  0  0
 10 11  1  0  0  0  0
 11 12  2  0  0  0  0
 11 13  1  0  0  0  0
 13 22  1  0  0  0  0
 13 23  1  0  0  0  0
 13 14  1  0  0  0  0
 14 24  1  0  0  0  0
 14 25  1  0  0  0  0
 15 26  1  0  0  0  0
 15 27  1  0  0  0  0
 16 17  2  0  0  0  0
 16 28  1  0  0  0  0
 17 18  1  0  0  0  0
 17 29  1  0  0  0  0
 18 30  1  0  0  0  0
M  ZZC   1 c1
M  ZZC   2 c2
M  ZZC   3 c3
M  ZZC   4 c4
M  ZZC   5 o1
M  ZZC   6 n1
M  ZZC   7 c5
M  ZZC   8 c6
M  ZZC   9 o2
M  ZZC  10 n2
M  ZZC  11 c7
M  ZZC  12 o3
M  ZZC  13 c8
M  ZZC  14 c9
M  ZZC  15 c10
M  ZZC  16 c11
M  ZZC  17 c12
M  ZZC  18 c13
M  ZZC  19 h11
M  ZZC  20 h51
M  ZZC  21 h21
M  ZZC  22 h81
M  ZZC  23 h82
M  ZZC  24 h91
M  ZZC  25 h92
M  ZZC  26 h101
M  ZZC  27 h102
M  ZZC  28 h111
M  ZZC  29 h121
M  ZZC  30 h131
M  ZZM   1 37
M  ZZI   1 125
M  ZZM   2 37
M  ZZI   2 124
M  ZZM   3 37
M  ZZI   3 124
M  ZZM   4 3
M  ZZI   4 121
M  ZZM   5 7
M  ZZI   5 81
M  ZZM   6 10
M  ZZI   6 192
M  ZZM   7 1
M  ZZI   7 113
M  ZZM   8 3
M  ZZI   8 121
M  ZZM   9 7
M  ZZI   9 81
M  ZZM  10 10
M  ZZI  10 191
M  ZZM  11 3
M  ZZI  11 121
M  ZZM  12 7
M  ZZI  12 81
M  ZZM  13 1
M  ZZI  13 112
M  ZZM  14 1
M  ZZI  14 112
M  ZZM  15 1
M  ZZI  15 112
M  ZZM  16 37
M  ZZI  16 125
M  ZZM  17 37
M  ZZI  17 125
M  ZZM  18 37
M  ZZI  18 125
M  ZZM  19 5
M  ZZI  19 1
M  ZZM  20 5
M  ZZI  20 1
M  ZZM  21 28
M  ZZI  21 11
M  ZZM  22 5
M  ZZI  22 1
M  ZZM  23 5
M  ZZI  23 1
M  ZZM  24 5
M  ZZI  24 1
M  ZZM  25 5
M  ZZI  25 1
M  ZZM  26 5
M  ZZI  26 1
M  ZZM  27 5
M  ZZI  27 1
M  ZZM  28 5
M  ZZI  28 1
M  ZZM  29 5
M  ZZI  29 1
M  ZZM  30 5
M  ZZI  30 1
M  END
> <IX>
1

> <NAME>
Cereblon_7NQ8_4.pdb

> <Score>
-18.713901

> <Natom>
30

> <Nflex>
1

> <Hbond>
-3.27034

> <Hphob>
-3.862154

> <VwInt>
-21.065678

> <Dsolv>
11.018193

> <SolEl>
5.6357

> <Eintl>
1.050292

> <RecConf>
ND

> <projPath>
Cereblon_maps/

> <NAME_>
Cereblon_7NQ8_4.pdb

$$$$
