Cereblon_3MXF_1.pdb
  MOLSOFT 04032206213D

 29 31  0  0  1  0  0  0  0  0999 V2000
   76.3140   40.4908   40.6533 C   0  0  0  0  0  0  0  0  0  0  0  0
   75.3243   40.2829   39.7098 C   0  0  0  0  0  0  0  0  0  0  0  0
   74.4531   41.2472   39.0448 C   0  0  0  0  0  0  0  0  0  0  0  0
   74.4454   42.4323   39.3400 O   0  0  0  0  0  0  0  0  0  0  0  0
   73.6907   40.5321   38.1387 N   0  0  0  0  0  0  0  0  0  0  0  0
   73.9556   39.1812   38.2469 C   0  0  0  0  0  0  0  0  0  0  0  0
   73.4496   38.2398   37.6537 O   0  0  0  0  0  0  0  0  0  0  0  0
   75.0131   39.0424   39.2469 C   0  0  0  0  0  0  0  0  0  0  0  0
   75.6597   37.9081   39.7027 C   0  0  0  0  0  0  0  0  0  0  0  0
   76.6572   38.0923   40.6541 C   0  0  0  0  0  0  0  0  0  0  0  0
   76.9805   39.3658   41.1229 C   0  0  0  0  0  0  0  0  0  0  0  0
   72.6602   41.0703   37.2380 C   0  0  1  0  0  0  0  0  0  0  0  0
   71.3528   41.2746   37.9969 C   0  0  0  0  0  0  0  0  0  0  0  0
   71.0390   40.6191   38.9797 O   0  0  0  0  0  0  0  0  0  0  0  0
   70.4831   42.1953   37.4581 N   0  0  0  0  0  0  0  0  0  0  0  0
   70.6743   43.0434   36.3991 C   0  0  0  0  0  0  0  0  0  0  0  0
   69.8503   43.8990   36.1137 O   0  0  0  0  0  0  0  0  0  0  0  0
   71.9449   42.8315   35.6153 C   0  0  0  0  0  0  0  0  0  0  0  0
   73.0731   42.3504   36.5143 C   0  0  0  0  0  0  0  0  0  0  0  0
   76.5687   41.4851   41.0065 H   0  0  0  0  0  0  0  0  0  0  0  0
   75.4066   36.9198   39.3301 H   0  0  0  0  0  0  0  0  0  0  0  0
   77.1958   37.2309   41.0368 H   0  0  0  0  0  0  0  0  0  0  0  0
   77.7648   39.4819   41.8651 H   0  0  0  0  0  0  0  0  0  0  0  0
   72.4492   40.2994   36.4876 H   0  0  0  0  0  0  0  0  0  0  0  0
   69.6128   42.3248   37.9528 H   0  0  0  0  0  0  0  0  0  0  0  0
   71.7429   42.1128   34.8139 H   0  0  0  0  0  0  0  0  0  0  0  0
   72.2214   43.7836   35.1580 H   0  0  0  0  0  0  0  0  0  0  0  0
   73.3189   43.1430   37.2261 H   0  0  0  0  0  0  0  0  0  0  0  0
   73.9755   42.1746   35.9203 H   0  0  0  0  0  0  0  0  0  0  0  0
  1 20  1  0  0  0  0
  1  2  1  0  0  0  0
  1 11  2  0  0  0  0
  2  3  1  0  0  0  0
  2  8  2  0  0  0  0
  3  4  2  0  0  0  0
  3  5  1  0  0  0  0
  5  6  1  0  0  0  0
 12  5  1  0  0  0  0
  6  7  2  0  0  0  0
  6  8  1  0  0  0  0
  8  9  1  0  0  0  0
  9 21  1  0  0  0  0
  9 10  2  0  0  0  0
 10 22  1  0  0  0  0
 10 11  1  0  0  0  0
 11 23  1  0  0  0  0
 12 24  1  0  0  0  0
 12 13  1  0  0  0  0
 12 19  1  0  0  0  0
 13 14  2  0  0  0  0
 13 15  1  0  0  0  0
 15 25  1  0  0  0  0
 15 16  1  0  0  0  0
 16 17  2  0  0  0  0
 16 18  1  0  0  0  0
 18 26  1  0  0  0  0
 18 27  1  0  0  0  0
 18 19  1  0  0  0  0
 19 28  1  0  0  0  0
 19 29  1  0  0  0  0
M  ZZC   1 c1
M  ZZC   2 c2
M  ZZC   3 c3
M  ZZC   4 o1
M  ZZC   5 n1
M  ZZC   6 c4
M  ZZC   7 o2
M  ZZC   8 c5
M  ZZC   9 c6
M  ZZC  10 c7
M  ZZC  11 c8
M  ZZC  12 c9
M  ZZC  13 c10
M  ZZC  14 o3
M  ZZC  15 n2
M  ZZC  16 c11
M  ZZC  17 o4
M  ZZC  18 c12
M  ZZC  19 c13
M  ZZC  20 h11
M  ZZC  21 h61
M  ZZC  22 h71
M  ZZC  23 h81
M  ZZC  24 h91
M  ZZC  25 h21
M  ZZC  26 h121
M  ZZC  27 h122
M  ZZC  28 h131
M  ZZC  29 h132
M  ZZM   1 37
M  ZZI   1 125
M  ZZM   2 37
M  ZZI   2 124
M  ZZM   3 3
M  ZZI   3 121
M  ZZM   4 7
M  ZZI   4 81
M  ZZM   5 10
M  ZZI   5 192
M  ZZM   6 3
M  ZZI   6 121
M  ZZM   7 7
M  ZZI   7 81
M  ZZM   8 37
M  ZZI   8 124
M  ZZM   9 37
M  ZZI   9 125
M  ZZM  10 37
M  ZZI  10 125
M  ZZM  11 37
M  ZZI  11 125
M  ZZM  12 1
M  ZZI  12 113
M  ZZM  13 3
M  ZZI  13 121
M  ZZM  14 7
M  ZZI  14 81
M  ZZM  15 10
M  ZZI  15 191
M  ZZM  16 3
M  ZZI  16 121
M  ZZM  17 7
M  ZZI  17 81
M  ZZM  18 1
M  ZZI  18 112
M  ZZM  19 1
M  ZZI  19 112
M  ZZM  20 5
M  ZZI  20 1
M  ZZM  21 5
M  ZZI  21 1
M  ZZM  22 5
M  ZZI  22 1
M  ZZM  23 5
M  ZZI  23 1
M  ZZM  24 5
M  ZZI  24 1
M  ZZM  25 28
M  ZZI  25 11
M  ZZM  26 5
M  ZZI  26 1
M  ZZM  27 5
M  ZZI  27 1
M  ZZM  28 5
M  ZZI  28 1
M  ZZM  29 5
M  ZZI  29 1
M  END
> <IX>
1

> <NAME>
Cereblon_3MXF_1.pdb

> <Score>
-20.671589

> <Natom>
29

> <Nflex>
1

> <Hbond>
-4.569953

> <Hphob>
-3.51425

> <VwInt>
-22.378278

> <Dsolv>
13.476421

> <SolEl>
6.924271

> <Eintl>
0.576472

> <RecConf>
ND

> <projPath>
Cereblon_maps/

> <NAME_>
Cereblon_3MXF_1.pdb

$$$$
