Cereblon_5V9O_12.pdb
  MOLSOFT 04032206273D

 31 33  0  0  1  0  0  0  0  0999 V2000
   78.8148   41.6792   43.8143 N   0  0  0  0  0  0  0  0  0  0  0  0
   78.9032   42.4273   42.6301 C   0  0  0  0  0  0  0  0  0  0  0  0
   78.0991   42.1597   41.5353 C   0  0  0  0  0  0  0  0  0  0  0  0
   77.1780   41.0491   41.3292 C   0  0  0  0  0  0  0  0  0  0  0  0
   76.9952   40.1683   42.1565 O   0  0  0  0  0  0  0  0  0  0  0  0
   76.6447   41.2118   40.0661 N   0  0  0  0  0  0  0  0  0  0  0  0
   77.1656   42.3323   39.4516 C   0  0  0  0  0  0  0  0  0  0  0  0
   76.9534   42.7535   38.3219 O   0  0  0  0  0  0  0  0  0  0  0  0
   78.0962   42.9287   40.4111 C   0  0  0  0  0  0  0  0  0  0  0  0
   78.9076   44.0381   40.2900 C   0  0  0  0  0  0  0  0  0  0  0  0
   79.7241   44.3382   41.3744 C   0  0  0  0  0  0  0  0  0  0  0  0
   79.7113   43.5559   42.5308 C   0  0  0  0  0  0  0  0  0  0  0  0
   75.6244   40.3755   39.4303 C   0  0  2  0  0  0  0  0  0  0  0  0
   74.2533   40.9546   39.7346 C   0  0  0  0  0  0  0  0  0  0  0  0
   74.0835   42.1348   39.9919 O   0  0  0  0  0  0  0  0  0  0  0  0
   73.1922   40.0898   39.6207 N   0  0  0  0  0  0  0  0  0  0  0  0
   73.2165   38.7519   39.3089 C   0  0  0  0  0  0  0  0  0  0  0  0
   72.1914   38.0992   39.2006 O   0  0  0  0  0  0  0  0  0  0  0  0
   74.5794   38.1525   39.0563 C   0  0  0  0  0  0  0  0  0  0  0  0
   75.6569   38.9013   39.8207 C   0  0  0  0  0  0  0  0  0  0  0  0
   79.5441   41.7689   44.5185 H   0  0  0  0  0  0  0  0  0  0  0  0
   78.2997   40.7977   43.7848 H   0  0  0  0  0  0  0  0  0  0  0  0
   78.9012   44.6448   39.3922 H   0  0  0  0  0  0  0  0  0  0  0  0
   80.3732   45.2056   41.3292 H   0  0  0  0  0  0  0  0  0  0  0  0
   80.3439   43.8373   43.3671 H   0  0  0  0  0  0  0  0  0  0  0  0
   75.7588   40.4749   38.3519 H   0  0  0  0  0  0  0  0  0  0  0  0
   72.2770   40.4922   39.7807 H   0  0  0  0  0  0  0  0  0  0  0  0
   74.5639   37.1047   39.3728 H   0  0  0  0  0  0  0  0  0  0  0  0
   74.7679   38.1782   37.9785 H   0  0  0  0  0  0  0  0  0  0  0  0
   75.4708   38.7746   40.8912 H   0  0  0  0  0  0  0  0  0  0  0  0
   76.6416   38.4692   39.6151 H   0  0  0  0  0  0  0  0  0  0  0  0
  1  2  1  0  0  0  0
  1 21  1  0  0  0  0
  1 22  1  0  0  0  0
  2  3  1  0  0  0  0
  2 12  2  0  0  0  0
  3  9  2  0  0  0  0
  3  4  1  0  0  0  0
  4  5  2  0  0  0  0
  4  6  1  0  0  0  0
  6  7  1  0  0  0  0
 13  6  1  0  0  0  0
  7  8  2  0  0  0  0
  7  9  1  0  0  0  0
  9 10  1  0  0  0  0
 10 23  1  0  0  0  0
 10 11  2  0  0  0  0
 11 12  1  0  0  0  0
 11 24  1  0  0  0  0
 12 25  1  0  0  0  0
 13 26  1  0  0  0  0
 13 14  1  0  0  0  0
 13 20  1  0  0  0  0
 14 15  2  0  0  0  0
 14 16  1  0  0  0  0
 16 27  1  0  0  0  0
 16 17  1  0  0  0  0
 17 18  2  0  0  0  0
 17 19  1  0  0  0  0
 19 28  1  0  0  0  0
 19 29  1  0  0  0  0
 19 20  1  0  0  0  0
 20 30  1  0  0  0  0
 20 31  1  0  0  0  0
M  ZZC   1 n1
M  ZZC   2 c1
M  ZZC   3 c2
M  ZZC   4 c3
M  ZZC   5 o1
M  ZZC   6 n2
M  ZZC   7 c4
M  ZZC   8 o2
M  ZZC   9 c5
M  ZZC  10 c6
M  ZZC  11 c7
M  ZZC  12 c8
M  ZZC  13 c9
M  ZZC  14 c10
M  ZZC  15 o3
M  ZZC  16 n3
M  ZZC  17 c11
M  ZZC  18 o4
M  ZZC  19 c12
M  ZZC  20 c13
M  ZZC  21 h11
M  ZZC  22 h12
M  ZZC  23 h61
M  ZZC  24 h71
M  ZZC  25 h81
M  ZZC  26 h91
M  ZZC  27 h31
M  ZZC  28 h121
M  ZZC  29 h122
M  ZZC  30 h131
M  ZZC  31 h132
M  ZZM   1 40
M  ZZI   1 224
M  ZZM   2 37
M  ZZI   2 124
M  ZZM   3 37
M  ZZI   3 124
M  ZZM   4 3
M  ZZI   4 121
M  ZZM   5 7
M  ZZI   5 81
M  ZZM   6 10
M  ZZI   6 192
M  ZZM   7 3
M  ZZI   7 121
M  ZZM   8 7
M  ZZI   8 81
M  ZZM   9 37
M  ZZI   9 124
M  ZZM  10 37
M  ZZI  10 125
M  ZZM  11 37
M  ZZI  11 125
M  ZZM  12 37
M  ZZI  12 125
M  ZZM  13 1
M  ZZI  13 113
M  ZZM  14 3
M  ZZI  14 121
M  ZZM  15 7
M  ZZI  15 81
M  ZZM  16 10
M  ZZI  16 191
M  ZZM  17 3
M  ZZI  17 121
M  ZZM  18 7
M  ZZI  18 81
M  ZZM  19 1
M  ZZI  19 112
M  ZZM  20 1
M  ZZI  20 112
M  ZZM  21 28
M  ZZI  21 11
M  ZZM  22 28
M  ZZI  22 11
M  ZZM  23 5
M  ZZI  23 1
M  ZZM  24 5
M  ZZI  24 1
M  ZZM  25 5
M  ZZI  25 1
M  ZZM  26 5
M  ZZI  26 1
M  ZZM  27 28
M  ZZI  27 11
M  ZZM  28 5
M  ZZI  28 1
M  ZZM  29 5
M  ZZI  29 1
M  ZZM  30 5
M  ZZI  30 1
M  ZZM  31 5
M  ZZI  31 1
M  END
> <IX>
1

> <NAME>
Cereblon_5V9O_12.pdb

> <Score>
-18.498133

> <Natom>
31

> <Nflex>
1

> <Hbond>
-3.694124

> <Hphob>
-3.566527

> <VwInt>
-24.244978

> <Dsolv>
15.133434

> <SolEl>
6.85917

> <Eintl>
1.675704

> <RecConf>
ND

> <projPath>
Cereblon_maps/

> <NAME_>
Cereblon_5V9O_12.pdb

$$$$
