Cereblon_6PEG_1.pdb
  MOLSOFT 04032206293D

 31 33  0  0  1  0  0  0  0  0999 V2000
   78.8123   41.6763   43.8203 N   0  0  0  0  0  0  0  0  0  0  0  0
   78.9068   42.4212   42.6342 C   0  0  0  0  0  0  0  0  0  0  0  0
   78.1009   42.1570   41.5396 C   0  0  0  0  0  0  0  0  0  0  0  0
   77.1800   41.0466   41.3315 C   0  0  0  0  0  0  0  0  0  0  0  0
   76.9984   40.1637   42.1568 O   0  0  0  0  0  0  0  0  0  0  0  0
   76.6465   41.2112   40.0687 N   0  0  0  0  0  0  0  0  0  0  0  0
   77.1676   42.3324   39.4558 C   0  0  0  0  0  0  0  0  0  0  0  0
   76.9545   42.7559   38.3271 O   0  0  0  0  0  0  0  0  0  0  0  0
   78.0986   42.9271   40.4161 C   0  0  0  0  0  0  0  0  0  0  0  0
   78.9098   44.0369   40.2967 C   0  0  0  0  0  0  0  0  0  0  0  0
   79.7250   44.3361   41.3821 C   0  0  0  0  0  0  0  0  0  0  0  0
   79.7119   43.5522   42.5374 C   0  0  0  0  0  0  0  0  0  0  0  0
   75.6264   40.3755   39.4315 C   0  0  2  0  0  0  0  0  0  0  0  0
   74.2553   40.9552   39.7353 C   0  0  0  0  0  0  0  0  0  0  0  0
   74.0856   42.1356   39.9916 O   0  0  0  0  0  0  0  0  0  0  0  0
   73.1940   40.0907   39.6209 N   0  0  0  0  0  0  0  0  0  0  0  0
   73.2174   38.7534   39.3068 C   0  0  0  0  0  0  0  0  0  0  0  0
   72.1918   38.1022   39.1943 O   0  0  0  0  0  0  0  0  0  0  0  0
   74.5802   38.1528   39.0566 C   0  0  0  0  0  0  0  0  0  0  0  0
   75.6581   38.9011   39.8210 C   0  0  0  0  0  0  0  0  0  0  0  0
   79.5539   41.7576   44.5123 H   0  0  0  0  0  0  0  0  0  0  0  0
   78.3217   40.7817   43.7768 H   0  0  0  0  0  0  0  0  0  0  0  0
   78.9026   44.6459   39.4004 H   0  0  0  0  0  0  0  0  0  0  0  0
   80.3726   45.2048   41.3388 H   0  0  0  0  0  0  0  0  0  0  0  0
   80.3429   43.8339   43.3748 H   0  0  0  0  0  0  0  0  0  0  0  0
   75.7619   40.4754   38.3533 H   0  0  0  0  0  0  0  0  0  0  0  0
   72.2790   40.4935   39.7810 H   0  0  0  0  0  0  0  0  0  0  0  0
   74.5626   37.1054   39.3741 H   0  0  0  0  0  0  0  0  0  0  0  0
   74.7696   38.1767   37.9790 H   0  0  0  0  0  0  0  0  0  0  0  0
   75.4719   38.7737   40.8913 H   0  0  0  0  0  0  0  0  0  0  0  0
   76.6424   38.4690   39.6141 H   0  0  0  0  0  0  0  0  0  0  0  0
  1  2  1  0  0  0  0
  1 21  1  0  0  0  0
  1 22  1  0  0  0  0
  2  3  1  0  0  0  0
  2 12  2  0  0  0  0
  3  9  2  0  0  0  0
  3  4  1  0  0  0  0
  4  5  2  0  0  0  0
  4  6  1  0  0  0  0
  6  7  1  0  0  0  0
 13  6  1  0  0  0  0
  7  8  2  0  0  0  0
  7  9  1  0  0  0  0
  9 10  1  0  0  0  0
 10 23  1  0  0  0  0
 10 11  2  0  0  0  0
 11 12  1  0  0  0  0
 11 24  1  0  0  0  0
 12 25  1  0  0  0  0
 13 26  1  0  0  0  0
 13 14  1  0  0  0  0
 13 20  1  0  0  0  0
 14 15  2  0  0  0  0
 14 16  1  0  0  0  0
 16 27  1  0  0  0  0
 16 17  1  0  0  0  0
 17 18  2  0  0  0  0
 17 19  1  0  0  0  0
 19 28  1  0  0  0  0
 19 29  1  0  0  0  0
 19 20  1  0  0  0  0
 20 30  1  0  0  0  0
 20 31  1  0  0  0  0
M  ZZC   1 n1
M  ZZC   2 c1
M  ZZC   3 c2
M  ZZC   4 c3
M  ZZC   5 o1
M  ZZC   6 n2
M  ZZC   7 c4
M  ZZC   8 o2
M  ZZC   9 c5
M  ZZC  10 c6
M  ZZC  11 c7
M  ZZC  12 c8
M  ZZC  13 c9
M  ZZC  14 c10
M  ZZC  15 o3
M  ZZC  16 n3
M  ZZC  17 c11
M  ZZC  18 o4
M  ZZC  19 c12
M  ZZC  20 c13
M  ZZC  21 h11
M  ZZC  22 h12
M  ZZC  23 h61
M  ZZC  24 h71
M  ZZC  25 h81
M  ZZC  26 h91
M  ZZC  27 h31
M  ZZC  28 h121
M  ZZC  29 h122
M  ZZC  30 h131
M  ZZC  31 h132
M  ZZM   1 40
M  ZZI   1 224
M  ZZM   2 37
M  ZZI   2 124
M  ZZM   3 37
M  ZZI   3 124
M  ZZM   4 3
M  ZZI   4 121
M  ZZM   5 7
M  ZZI   5 81
M  ZZM   6 10
M  ZZI   6 192
M  ZZM   7 3
M  ZZI   7 121
M  ZZM   8 7
M  ZZI   8 81
M  ZZM   9 37
M  ZZI   9 124
M  ZZM  10 37
M  ZZI  10 125
M  ZZM  11 37
M  ZZI  11 125
M  ZZM  12 37
M  ZZI  12 125
M  ZZM  13 1
M  ZZI  13 113
M  ZZM  14 3
M  ZZI  14 121
M  ZZM  15 7
M  ZZI  15 81
M  ZZM  16 10
M  ZZI  16 191
M  ZZM  17 3
M  ZZI  17 121
M  ZZM  18 7
M  ZZI  18 81
M  ZZM  19 1
M  ZZI  19 112
M  ZZM  20 1
M  ZZI  20 112
M  ZZM  21 28
M  ZZI  21 11
M  ZZM  22 28
M  ZZI  22 11
M  ZZM  23 5
M  ZZI  23 1
M  ZZM  24 5
M  ZZI  24 1
M  ZZM  25 5
M  ZZI  25 1
M  ZZM  26 5
M  ZZI  26 1
M  ZZM  27 28
M  ZZI  27 11
M  ZZM  28 5
M  ZZI  28 1
M  ZZM  29 5
M  ZZI  29 1
M  ZZM  30 5
M  ZZI  30 1
M  ZZM  31 5
M  ZZI  31 1
M  END
> <IX>
1

> <NAME>
Cereblon_6PEG_1.pdb

> <Score>
-18.351755

> <Natom>
31

> <Nflex>
1

> <Hbond>
-3.714978

> <Hphob>
-3.534893

> <VwInt>
-24.212163

> <Dsolv>
15.135661

> <SolEl>
7.056762

> <Eintl>
1.697453

> <RecConf>
ND

> <projPath>
Cereblon_maps/

> <NAME_>
Cereblon_6PEG_1.pdb

$$$$
