Cereblon_5UVX_2.pdb
  MOLSOFT 04032206273D

 30 32  0  0  1  0  0  0  0  0999 V2000
   77.5955   41.0663   42.0853 C   0  0  0  0  0  0  0  0  0  0  0  0
   76.9635   41.1335   40.8542 C   0  0  0  0  0  0  0  0  0  0  0  0
   77.2595   42.1426   39.9777 C   0  0  0  0  0  0  0  0  0  0  0  0
   76.4106   41.9805   38.7917 C   0  0  0  0  0  0  0  0  0  0  0  0
   76.4477   42.6986   37.8023 O   0  0  0  0  0  0  0  0  0  0  0  0
   75.5713   40.9114   39.0473 N   0  0  0  0  0  0  0  0  0  0  0  0
   74.2648   40.7548   38.3886 C   0  0  2  0  0  0  0  0  0  0  0  0
   73.2414   41.5299   39.2018 C   0  0  0  0  0  0  0  0  0  0  0  0
   73.5619   42.3807   40.0154 O   0  0  0  0  0  0  0  0  0  0  0  0
   71.9230   41.2508   38.9338 N   0  0  0  0  0  0  0  0  0  0  0  0
   71.4143   40.2430   38.1509 C   0  0  0  0  0  0  0  0  0  0  0  0
   70.2121   40.1288   37.9616 O   0  0  0  0  0  0  0  0  0  0  0  0
   72.4352   39.3246   37.5107 C   0  0  0  0  0  0  0  0  0  0  0  0
   73.7604   39.3215   38.2643 C   0  0  0  0  0  0  0  0  0  0  0  0
   75.9190   40.2433   40.2871 C   0  0  0  0  0  0  0  0  0  0  0  0
   78.1848   43.1344   40.2564 C   0  0  0  0  0  0  0  0  0  0  0  0
   78.8303   43.0648   41.4845 C   0  0  0  0  0  0  0  0  0  0  0  0
   78.5297   42.0482   42.3907 C   0  0  0  0  0  0  0  0  0  0  0  0
   77.3641   40.2809   42.7986 H   0  0  0  0  0  0  0  0  0  0  0  0
   74.3161   41.2418   37.4073 H   0  0  0  0  0  0  0  0  0  0  0  0
   71.2487   41.8581   39.3825 H   0  0  0  0  0  0  0  0  0  0  0  0
   72.0221   38.3113   37.4867 H   0  0  0  0  0  0  0  0  0  0  0  0
   72.5823   39.6535   36.4761 H   0  0  0  0  0  0  0  0  0  0  0  0
   73.6174   38.8766   39.2560 H   0  0  0  0  0  0  0  0  0  0  0  0
   74.4854   38.6924   37.7407 H   0  0  0  0  0  0  0  0  0  0  0  0
   76.3011   39.2411   40.0654 H   0  0  0  0  0  0  0  0  0  0  0  0
   75.0445   40.1959   40.9317 H   0  0  0  0  0  0  0  0  0  0  0  0
   78.3939   43.9334   39.5526 H   0  0  0  0  0  0  0  0  0  0  0  0
   79.5612   43.8222   41.7493 H   0  0  0  0  0  0  0  0  0  0  0  0
   79.0335   42.0229   43.3523 H   0  0  0  0  0  0  0  0  0  0  0  0
  1 19  1  0  0  0  0
  1 18  2  0  0  0  0
  1  2  1  0  0  0  0
  2  3  2  0  0  0  0
  2 15  1  0  0  0  0
  3 16  1  0  0  0  0
  3  4  1  0  0  0  0
  4  6  1  0  0  0  0
  4  5  2  0  0  0  0
  6 15  1  0  0  0  0
  7  6  1  0  0  0  0
  7 20  1  0  0  0  0
  7  8  1  0  0  0  0
  7 14  1  0  0  0  0
  8  9  2  0  0  0  0
  8 10  1  0  0  0  0
 10 21  1  0  0  0  0
 10 11  1  0  0  0  0
 11 12  2  0  0  0  0
 11 13  1  0  0  0  0
 13 22  1  0  0  0  0
 13 23  1  0  0  0  0
 13 14  1  0  0  0  0
 14 24  1  0  0  0  0
 14 25  1  0  0  0  0
 15 26  1  0  0  0  0
 15 27  1  0  0  0  0
 16 17  2  0  0  0  0
 16 28  1  0  0  0  0
 17 18  1  0  0  0  0
 17 29  1  0  0  0  0
 18 30  1  0  0  0  0
M  ZZC   1 c1
M  ZZC   2 c2
M  ZZC   3 c3
M  ZZC   4 c4
M  ZZC   5 o1
M  ZZC   6 n1
M  ZZC   7 c5
M  ZZC   8 c6
M  ZZC   9 o2
M  ZZC  10 n2
M  ZZC  11 c7
M  ZZC  12 o3
M  ZZC  13 c8
M  ZZC  14 c9
M  ZZC  15 c10
M  ZZC  16 c11
M  ZZC  17 c12
M  ZZC  18 c13
M  ZZC  19 h11
M  ZZC  20 h51
M  ZZC  21 h21
M  ZZC  22 h81
M  ZZC  23 h82
M  ZZC  24 h91
M  ZZC  25 h92
M  ZZC  26 h101
M  ZZC  27 h102
M  ZZC  28 h111
M  ZZC  29 h121
M  ZZC  30 h131
M  ZZM   1 37
M  ZZI   1 125
M  ZZM   2 37
M  ZZI   2 124
M  ZZM   3 37
M  ZZI   3 124
M  ZZM   4 3
M  ZZI   4 121
M  ZZM   5 7
M  ZZI   5 81
M  ZZM   6 10
M  ZZI   6 192
M  ZZM   7 1
M  ZZI   7 113
M  ZZM   8 3
M  ZZI   8 121
M  ZZM   9 7
M  ZZI   9 81
M  ZZM  10 10
M  ZZI  10 191
M  ZZM  11 3
M  ZZI  11 121
M  ZZM  12 7
M  ZZI  12 81
M  ZZM  13 1
M  ZZI  13 112
M  ZZM  14 1
M  ZZI  14 112
M  ZZM  15 1
M  ZZI  15 112
M  ZZM  16 37
M  ZZI  16 125
M  ZZM  17 37
M  ZZI  17 125
M  ZZM  18 37
M  ZZI  18 125
M  ZZM  19 5
M  ZZI  19 1
M  ZZM  20 5
M  ZZI  20 1
M  ZZM  21 28
M  ZZI  21 11
M  ZZM  22 5
M  ZZI  22 1
M  ZZM  23 5
M  ZZI  23 1
M  ZZM  24 5
M  ZZI  24 1
M  ZZM  25 5
M  ZZI  25 1
M  ZZM  26 5
M  ZZI  26 1
M  ZZM  27 5
M  ZZI  27 1
M  ZZM  28 5
M  ZZI  28 1
M  ZZM  29 5
M  ZZI  29 1
M  ZZM  30 5
M  ZZI  30 1
M  END
> <IX>
1

> <NAME>
Cereblon_5UVX_2.pdb

> <Score>
-15.700935

> <Natom>
30

> <Nflex>
1

> <Hbond>
-4.231049

> <Hphob>
-3.661576

> <VwInt>
-19.406856

> <Dsolv>
13.947661

> <SolEl>
5.082272

> <Eintl>
4.081143

> <RecConf>
ND

> <projPath>
Cereblon_maps/

> <NAME_>
Cereblon_5UVX_2.pdb

$$$$
