Cereblon_6NUQ_8.pdb
  MOLSOFT 04032206293D

 30 32  0  0  1  0  0  0  0  0999 V2000
   75.6969   37.9236   39.7592 C   0  0  0  0  0  0  0  0  0  0  0  0
   74.9975   39.0183   39.2793 C   0  0  0  0  0  0  0  0  0  0  0  0
   75.3067   40.2732   39.7219 C   0  0  0  0  0  0  0  0  0  0  0  0
   74.4150   41.2259   39.0602 C   0  0  0  0  0  0  0  0  0  0  0  0
   74.4151   42.4217   39.3097 O   0  0  0  0  0  0  0  0  0  0  0  0
   73.6406   40.4986   38.1689 N   0  0  0  0  0  0  0  0  0  0  0  0
   72.6074   41.0139   37.2552 C   0  0  1  0  0  0  0  0  0  0  0  0
   71.2846   41.2407   37.9861 C   0  0  0  0  0  0  0  0  0  0  0  0
   70.9185   40.5625   38.9352 O   0  0  0  0  0  0  0  0  0  0  0  0
   70.4551   42.2013   37.4538 N   0  0  0  0  0  0  0  0  0  0  0  0
   70.6655   43.0235   36.3790 C   0  0  0  0  0  0  0  0  0  0  0  0
   69.8667   43.8988   36.0820 O   0  0  0  0  0  0  0  0  0  0  0  0
   71.9182   42.7462   35.5883 C   0  0  0  0  0  0  0  0  0  0  0  0
   73.0371   42.2705   36.5005 C   0  0  0  0  0  0  0  0  0  0  0  0
   73.8884   39.0718   38.2905 C   0  0  0  0  0  0  0  0  0  0  0  0
   76.3168   40.5287   40.6314 C   0  0  0  0  0  0  0  0  0  0  0  0
   77.0218   39.4364   41.1142 C   0  0  0  0  0  0  0  0  0  0  0  0
   76.7130   38.1493   40.6812 C   0  0  0  0  0  0  0  0  0  0  0  0
   75.4700   36.9167   39.4228 H   0  0  0  0  0  0  0  0  0  0  0  0
   72.4178   40.2253   36.5175 H   0  0  0  0  0  0  0  0  0  0  0  0
   69.5863   42.3566   37.9438 H   0  0  0  0  0  0  0  0  0  0  0  0
   71.6879   42.0005   34.8198 H   0  0  0  0  0  0  0  0  0  0  0  0
   72.2173   43.6696   35.0882 H   0  0  0  0  0  0  0  0  0  0  0  0
   73.9368   42.0664   35.9111 H   0  0  0  0  0  0  0  0  0  0  0  0
   73.2956   43.0788   37.1903 H   0  0  0  0  0  0  0  0  0  0  0  0
   74.1815   38.6613   37.3184 H   0  0  0  0  0  0  0  0  0  0  0  0
   72.9885   38.5752   38.6689 H   0  0  0  0  0  0  0  0  0  0  0  0
   76.5584   41.5384   40.9474 H   0  0  0  0  0  0  0  0  0  0  0  0
   77.8230   39.5885   41.8311 H   0  0  0  0  0  0  0  0  0  0  0  0
   77.2797   37.3082   41.0675 H   0  0  0  0  0  0  0  0  0  0  0  0
  1 19  1  0  0  0  0
  1 18  2  0  0  0  0
  1  2  1  0  0  0  0
  2  3  2  0  0  0  0
  2 15  1  0  0  0  0
  3 16  1  0  0  0  0
  3  4  1  0  0  0  0
  4  6  1  0  0  0  0
  4  5  2  0  0  0  0
  6 15  1  0  0  0  0
  7  6  1  0  0  0  0
  7 20  1  0  0  0  0
  7  8  1  0  0  0  0
  7 14  1  0  0  0  0
  8  9  2  0  0  0  0
  8 10  1  0  0  0  0
 10 21  1  0  0  0  0
 10 11  1  0  0  0  0
 11 12  2  0  0  0  0
 11 13  1  0  0  0  0
 13 22  1  0  0  0  0
 13 23  1  0  0  0  0
 13 14  1  0  0  0  0
 14 24  1  0  0  0  0
 14 25  1  0  0  0  0
 15 26  1  0  0  0  0
 15 27  1  0  0  0  0
 16 17  2  0  0  0  0
 16 28  1  0  0  0  0
 17 18  1  0  0  0  0
 17 29  1  0  0  0  0
 18 30  1  0  0  0  0
M  ZZC   1 c1
M  ZZC   2 c2
M  ZZC   3 c3
M  ZZC   4 c4
M  ZZC   5 o1
M  ZZC   6 n1
M  ZZC   7 c5
M  ZZC   8 c6
M  ZZC   9 o2
M  ZZC  10 n2
M  ZZC  11 c7
M  ZZC  12 o3
M  ZZC  13 c8
M  ZZC  14 c9
M  ZZC  15 c10
M  ZZC  16 c11
M  ZZC  17 c12
M  ZZC  18 c13
M  ZZC  19 h11
M  ZZC  20 h51
M  ZZC  21 h21
M  ZZC  22 h81
M  ZZC  23 h82
M  ZZC  24 h91
M  ZZC  25 h92
M  ZZC  26 h101
M  ZZC  27 h102
M  ZZC  28 h111
M  ZZC  29 h121
M  ZZC  30 h131
M  ZZM   1 37
M  ZZI   1 125
M  ZZM   2 37
M  ZZI   2 124
M  ZZM   3 37
M  ZZI   3 124
M  ZZM   4 3
M  ZZI   4 121
M  ZZM   5 7
M  ZZI   5 81
M  ZZM   6 10
M  ZZI   6 192
M  ZZM   7 1
M  ZZI   7 113
M  ZZM   8 3
M  ZZI   8 121
M  ZZM   9 7
M  ZZI   9 81
M  ZZM  10 10
M  ZZI  10 191
M  ZZM  11 3
M  ZZI  11 121
M  ZZM  12 7
M  ZZI  12 81
M  ZZM  13 1
M  ZZI  13 112
M  ZZM  14 1
M  ZZI  14 112
M  ZZM  15 1
M  ZZI  15 112
M  ZZM  16 37
M  ZZI  16 125
M  ZZM  17 37
M  ZZI  17 125
M  ZZM  18 37
M  ZZI  18 125
M  ZZM  19 5
M  ZZI  19 1
M  ZZM  20 5
M  ZZI  20 1
M  ZZM  21 28
M  ZZI  21 11
M  ZZM  22 5
M  ZZI  22 1
M  ZZM  23 5
M  ZZI  23 1
M  ZZM  24 5
M  ZZI  24 1
M  ZZM  25 5
M  ZZI  25 1
M  ZZM  26 5
M  ZZI  26 1
M  ZZM  27 5
M  ZZI  27 1
M  ZZM  28 5
M  ZZI  28 1
M  ZZM  29 5
M  ZZI  29 1
M  ZZM  30 5
M  ZZI  30 1
M  END
> <IX>
1

> <NAME>
Cereblon_6NUQ_8.pdb

> <Score>
-20.772453

> <Natom>
30

> <Nflex>
1

> <Hbond>
-4.628733

> <Hphob>
-3.585453

> <VwInt>
-22.018833

> <Dsolv>
13.231137

> <SolEl>
5.742254

> <Eintl>
1.743481

> <RecConf>
ND

> <projPath>
Cereblon_maps/

> <NAME_>
Cereblon_6NUQ_8.pdb

$$$$
