Cereblon_6NUQ_10.pdb
  MOLSOFT 04032206283D

 30 32  0  0  1  0  0  0  0  0999 V2000
   70.2544   53.0860    5.8691 C   0  0  0  0  0  0  0  0  0  0  0  0
   70.8374   53.0129    4.6149 C   0  0  0  0  0  0  0  0  0  0  0  0
   71.2038   51.7980    4.1023 C   0  0  0  0  0  0  0  0  0  0  0  0
   71.7943   52.0137    2.7797 C   0  0  0  0  0  0  0  0  0  0  0  0
   72.2045   51.1191    2.0542 O   0  0  0  0  0  0  0  0  0  0  0  0
   71.7779   53.3763    2.5579 N   0  0  0  0  0  0  0  0  0  0  0  0
   72.1961   53.9993    1.2962 C   0  0  1  0  0  0  0  0  0  0  0  0
   70.9879   54.3404    0.4249 C   0  0  0  0  0  0  0  0  0  0  0  0
   69.8889   53.8229    0.5595 O   0  0  0  0  0  0  0  0  0  0  0  0
   71.2041   55.2832   -0.5535 N   0  0  0  0  0  0  0  0  0  0  0  0
   72.2749   56.1326   -0.6769 C   0  0  0  0  0  0  0  0  0  0  0  0
   72.2410   57.0921   -1.4285 O   0  0  0  0  0  0  0  0  0  0  0  0
   73.4793   55.8003    0.1625 C   0  0  0  0  0  0  0  0  0  0  0  0
   73.0502   55.2428    1.5080 C   0  0  0  0  0  0  0  0  0  0  0  0
   71.1690   54.1046    3.6607 C   0  0  0  0  0  0  0  0  0  0  0  0
   71.0243   50.6032    4.7749 C   0  0  0  0  0  0  0  0  0  0  0  0
   70.4439   50.6707    6.0324 C   0  0  0  0  0  0  0  0  0  0  0  0
   70.0661   51.8983    6.5682 C   0  0  0  0  0  0  0  0  0  0  0  0
   69.9571   54.0382    6.2983 H   0  0  0  0  0  0  0  0  0  0  0  0
   72.7717   53.2532    0.7369 H   0  0  0  0  0  0  0  0  0  0  0  0
   70.4039   55.5105   -1.1329 H   0  0  0  0  0  0  0  0  0  0  0  0
   74.0956   55.0802   -0.3861 H   0  0  0  0  0  0  0  0  0  0  0  0
   74.0665   56.7124    0.2982 H   0  0  0  0  0  0  0  0  0  0  0  0
   73.9303   54.9998    2.1125 H   0  0  0  0  0  0  0  0  0  0  0  0
   72.4868   56.0081    2.0540 H   0  0  0  0  0  0  0  0  0  0  0  0
   70.2709   54.6258    3.3133 H   0  0  0  0  0  0  0  0  0  0  0  0
   71.8933   54.8059    4.0879 H   0  0  0  0  0  0  0  0  0  0  0  0
   71.3291   49.6553    4.3422 H   0  0  0  0  0  0  0  0  0  0  0  0
   70.2873   49.7612    6.6044 H   0  0  0  0  0  0  0  0  0  0  0  0
   69.6219   51.9229    7.5552 H   0  0  0  0  0  0  0  0  0  0  0  0
  1 19  1  0  0  0  0
  1 18  2  0  0  0  0
  1  2  1  0  0  0  0
  2  3  2  0  0  0  0
  2 15  1  0  0  0  0
  3 16  1  0  0  0  0
  3  4  1  0  0  0  0
  4  6  1  0  0  0  0
  4  5  2  0  0  0  0
  6 15  1  0  0  0  0
  7  6  1  0  0  0  0
  7 20  1  0  0  0  0
  7  8  1  0  0  0  0
  7 14  1  0  0  0  0
  8  9  2  0  0  0  0
  8 10  1  0  0  0  0
 10 21  1  0  0  0  0
 10 11  1  0  0  0  0
 11 12  2  0  0  0  0
 11 13  1  0  0  0  0
 13 22  1  0  0  0  0
 13 23  1  0  0  0  0
 13 14  1  0  0  0  0
 14 24  1  0  0  0  0
 14 25  1  0  0  0  0
 15 26  1  0  0  0  0
 15 27  1  0  0  0  0
 16 17  2  0  0  0  0
 16 28  1  0  0  0  0
 17 18  1  0  0  0  0
 17 29  1  0  0  0  0
 18 30  1  0  0  0  0
M  ZZC   1 c1
M  ZZC   2 c2
M  ZZC   3 c3
M  ZZC   4 c4
M  ZZC   5 o1
M  ZZC   6 n1
M  ZZC   7 c5
M  ZZC   8 c6
M  ZZC   9 o2
M  ZZC  10 n2
M  ZZC  11 c7
M  ZZC  12 o3
M  ZZC  13 c8
M  ZZC  14 c9
M  ZZC  15 c10
M  ZZC  16 c11
M  ZZC  17 c12
M  ZZC  18 c13
M  ZZC  19 h11
M  ZZC  20 h51
M  ZZC  21 h21
M  ZZC  22 h81
M  ZZC  23 h82
M  ZZC  24 h91
M  ZZC  25 h92
M  ZZC  26 h101
M  ZZC  27 h102
M  ZZC  28 h111
M  ZZC  29 h121
M  ZZC  30 h131
M  ZZM   1 37
M  ZZI   1 125
M  ZZM   2 37
M  ZZI   2 124
M  ZZM   3 37
M  ZZI   3 124
M  ZZM   4 3
M  ZZI   4 121
M  ZZM   5 7
M  ZZI   5 81
M  ZZM   6 10
M  ZZI   6 192
M  ZZM   7 1
M  ZZI   7 113
M  ZZM   8 3
M  ZZI   8 121
M  ZZM   9 7
M  ZZI   9 81
M  ZZM  10 10
M  ZZI  10 191
M  ZZM  11 3
M  ZZI  11 121
M  ZZM  12 7
M  ZZI  12 81
M  ZZM  13 1
M  ZZI  13 112
M  ZZM  14 1
M  ZZI  14 112
M  ZZM  15 1
M  ZZI  15 112
M  ZZM  16 37
M  ZZI  16 125
M  ZZM  17 37
M  ZZI  17 125
M  ZZM  18 37
M  ZZI  18 125
M  ZZM  19 5
M  ZZI  19 1
M  ZZM  20 5
M  ZZI  20 1
M  ZZM  21 28
M  ZZI  21 11
M  ZZM  22 5
M  ZZI  22 1
M  ZZM  23 5
M  ZZI  23 1
M  ZZM  24 5
M  ZZI  24 1
M  ZZM  25 5
M  ZZI  25 1
M  ZZM  26 5
M  ZZI  26 1
M  ZZM  27 5
M  ZZI  27 1
M  ZZM  28 5
M  ZZI  28 1
M  ZZM  29 5
M  ZZI  29 1
M  ZZM  30 5
M  ZZI  30 1
M  END
> <IX>
1

> <NAME>
Cereblon_6NUQ_10.pdb

> <Score>
-19.294411

> <Natom>
30

> <Nflex>
1

> <Hbond>
-4.660898

> <Hphob>
-3.616169

> <VwInt>
-14.269531

> <Dsolv>
8.273279

> <SolEl>
3.127918

> <Eintl>
0.534399

> <RecConf>
ND

> <projPath>
Cereblon_maps/

> <NAME_>
Cereblon_6NUQ_10.pdb

$$$$
