Cereblon_5TRF_11.pdb
  MOLSOFT 04032206273D

 30 32  0  0  1  0  0  0  0  0999 V2000
   75.6704   37.9118   39.7439 C   0  0  0  0  0  0  0  0  0  0  0  0
   74.9792   39.0130   39.2672 C   0  0  0  0  0  0  0  0  0  0  0  0
   75.2972   40.2641   39.7141 C   0  0  0  0  0  0  0  0  0  0  0  0
   74.4129   41.2257   39.0548 C   0  0  0  0  0  0  0  0  0  0  0  0
   74.4205   42.4204   39.3095 O   0  0  0  0  0  0  0  0  0  0  0  0
   73.6347   40.5070   38.1596 N   0  0  0  0  0  0  0  0  0  0  0  0
   72.6018   41.0326   37.2513 C   0  0  1  0  0  0  0  0  0  0  0  0
   71.2799   41.2555   37.9846 C   0  0  0  0  0  0  0  0  0  0  0  0
   70.9182   40.5779   38.9358 O   0  0  0  0  0  0  0  0  0  0  0  0
   70.4444   42.2088   37.4490 N   0  0  0  0  0  0  0  0  0  0  0  0
   70.6538   43.0357   36.3777 C   0  0  0  0  0  0  0  0  0  0  0  0
   69.8514   43.9080   36.0818 O   0  0  0  0  0  0  0  0  0  0  0  0
   71.9136   42.7733   35.5927 C   0  0  0  0  0  0  0  0  0  0  0  0
   73.0319   42.2939   36.5039 C   0  0  0  0  0  0  0  0  0  0  0  0
   73.8705   39.0779   38.2784 C   0  0  0  0  0  0  0  0  0  0  0  0
   76.3050   40.5088   40.6291 C   0  0  0  0  0  0  0  0  0  0  0  0
   77.0027   39.4100   41.1076 C   0  0  0  0  0  0  0  0  0  0  0  0
   76.6871   38.1272   40.6674 C   0  0  0  0  0  0  0  0  0  0  0  0
   75.4343   36.9078   39.4049 H   0  0  0  0  0  0  0  0  0  0  0  0
   72.4109   40.2502   36.5074 H   0  0  0  0  0  0  0  0  0  0  0  0
   69.5733   42.3585   37.9368 H   0  0  0  0  0  0  0  0  0  0  0  0
   71.6917   42.0353   34.8143 H   0  0  0  0  0  0  0  0  0  0  0  0
   72.2100   43.7041   35.1049 H   0  0  0  0  0  0  0  0  0  0  0  0
   73.9338   42.0961   35.9157 H   0  0  0  0  0  0  0  0  0  0  0  0
   73.2856   43.0971   37.2013 H   0  0  0  0  0  0  0  0  0  0  0  0
   74.1601   38.6671   37.3054 H   0  0  0  0  0  0  0  0  0  0  0  0
   72.9664   38.5884   38.6562 H   0  0  0  0  0  0  0  0  0  0  0  0
   76.5505   41.5154   40.9522 H   0  0  0  0  0  0  0  0  0  0  0  0
   77.8019   39.5536   41.8284 H   0  0  0  0  0  0  0  0  0  0  0  0
   77.2467   37.2804   41.0518 H   0  0  0  0  0  0  0  0  0  0  0  0
  1 19  1  0  0  0  0
  1 18  2  0  0  0  0
  1  2  1  0  0  0  0
  2  3  2  0  0  0  0
  2 15  1  0  0  0  0
  3 16  1  0  0  0  0
  3  4  1  0  0  0  0
  4  6  1  0  0  0  0
  4  5  2  0  0  0  0
  6 15  1  0  0  0  0
  7  6  1  0  0  0  0
  7 20  1  0  0  0  0
  7  8  1  0  0  0  0
  7 14  1  0  0  0  0
  8  9  2  0  0  0  0
  8 10  1  0  0  0  0
 10 21  1  0  0  0  0
 10 11  1  0  0  0  0
 11 12  2  0  0  0  0
 11 13  1  0  0  0  0
 13 22  1  0  0  0  0
 13 23  1  0  0  0  0
 13 14  1  0  0  0  0
 14 24  1  0  0  0  0
 14 25  1  0  0  0  0
 15 26  1  0  0  0  0
 15 27  1  0  0  0  0
 16 17  2  0  0  0  0
 16 28  1  0  0  0  0
 17 18  1  0  0  0  0
 17 29  1  0  0  0  0
 18 30  1  0  0  0  0
M  ZZC   1 c1
M  ZZC   2 c2
M  ZZC   3 c3
M  ZZC   4 c4
M  ZZC   5 o1
M  ZZC   6 n1
M  ZZC   7 c5
M  ZZC   8 c6
M  ZZC   9 o2
M  ZZC  10 n2
M  ZZC  11 c7
M  ZZC  12 o3
M  ZZC  13 c8
M  ZZC  14 c9
M  ZZC  15 c10
M  ZZC  16 c11
M  ZZC  17 c12
M  ZZC  18 c13
M  ZZC  19 h11
M  ZZC  20 h51
M  ZZC  21 h21
M  ZZC  22 h81
M  ZZC  23 h82
M  ZZC  24 h91
M  ZZC  25 h92
M  ZZC  26 h101
M  ZZC  27 h102
M  ZZC  28 h111
M  ZZC  29 h121
M  ZZC  30 h131
M  ZZM   1 37
M  ZZI   1 125
M  ZZM   2 37
M  ZZI   2 124
M  ZZM   3 37
M  ZZI   3 124
M  ZZM   4 3
M  ZZI   4 121
M  ZZM   5 7
M  ZZI   5 81
M  ZZM   6 10
M  ZZI   6 192
M  ZZM   7 1
M  ZZI   7 113
M  ZZM   8 3
M  ZZI   8 121
M  ZZM   9 7
M  ZZI   9 81
M  ZZM  10 10
M  ZZI  10 191
M  ZZM  11 3
M  ZZI  11 121
M  ZZM  12 7
M  ZZI  12 81
M  ZZM  13 1
M  ZZI  13 112
M  ZZM  14 1
M  ZZI  14 112
M  ZZM  15 1
M  ZZI  15 112
M  ZZM  16 37
M  ZZI  16 125
M  ZZM  17 37
M  ZZI  17 125
M  ZZM  18 37
M  ZZI  18 125
M  ZZM  19 5
M  ZZI  19 1
M  ZZM  20 5
M  ZZI  20 1
M  ZZM  21 28
M  ZZI  21 11
M  ZZM  22 5
M  ZZI  22 1
M  ZZM  23 5
M  ZZI  23 1
M  ZZM  24 5
M  ZZI  24 1
M  ZZM  25 5
M  ZZI  25 1
M  ZZM  26 5
M  ZZI  26 1
M  ZZM  27 5
M  ZZI  27 1
M  ZZM  28 5
M  ZZI  28 1
M  ZZM  29 5
M  ZZI  29 1
M  ZZM  30 5
M  ZZI  30 1
M  END
> <IX>
1

> <NAME>
Cereblon_5TRF_11.pdb

> <Score>
-20.805003

> <Natom>
30

> <Nflex>
1

> <Hbond>
-4.63479

> <Hphob>
-3.667231

> <VwInt>
-21.985669

> <Dsolv>
13.204752

> <SolEl>
5.783861

> <Eintl>
1.738029

> <RecConf>
ND

> <projPath>
Cereblon_maps/

> <NAME_>
Cereblon_5TRF_11.pdb

$$$$
