Cereblon_5J8O_8.pdb
  MOLSOFT 04032206253D

 29 31  0  0  1  0  0  0  0  0999 V2000
   79.8258   43.6086   42.5448 C   0  0  0  0  0  0  0  0  0  0  0  0
   79.0067   42.4930   42.6723 C   0  0  0  0  0  0  0  0  0  0  0  0
   78.1873   42.1979   41.5972 C   0  0  0  0  0  0  0  0  0  0  0  0
   77.2687   41.0805   41.4128 C   0  0  0  0  0  0  0  0  0  0  0  0
   77.0878   40.2217   42.2623 O   0  0  0  0  0  0  0  0  0  0  0  0
   76.7290   41.2208   40.1474 N   0  0  0  0  0  0  0  0  0  0  0  0
   77.2241   42.3481   39.5241 C   0  0  0  0  0  0  0  0  0  0  0  0
   76.9877   42.7662   38.3980 O   0  0  0  0  0  0  0  0  0  0  0  0
   78.1601   42.9598   40.4680 C   0  0  0  0  0  0  0  0  0  0  0  0
   78.9604   44.0749   40.3245 C   0  0  0  0  0  0  0  0  0  0  0  0
   79.8019   44.3858   41.3864 C   0  0  0  0  0  0  0  0  0  0  0  0
   75.7205   40.3657   39.5153 C   0  0  2  0  0  0  0  0  0  0  0  0
   74.3398   40.9328   39.8046 C   0  0  0  0  0  0  0  0  0  0  0  0
   74.1511   42.1188   40.0183 O   0  0  0  0  0  0  0  0  0  0  0  0
   73.2899   40.0506   39.7283 N   0  0  0  0  0  0  0  0  0  0  0  0
   73.3296   38.7044   39.4583 C   0  0  0  0  0  0  0  0  0  0  0  0
   72.3148   38.0293   39.4023 O   0  0  0  0  0  0  0  0  0  0  0  0
   74.6946   38.1242   39.1815 C   0  0  0  0  0  0  0  0  0  0  0  0
   75.7770   38.8952   39.9163 C   0  0  0  0  0  0  0  0  0  0  0  0
   80.4937   43.8782   43.3582 H   0  0  0  0  0  0  0  0  0  0  0  0
   79.0190   41.8778   43.5676 H   0  0  0  0  0  0  0  0  0  0  0  0
   78.9298   44.6757   39.4235 H   0  0  0  0  0  0  0  0  0  0  0  0
   80.4501   45.2516   41.3161 H   0  0  0  0  0  0  0  0  0  0  0  0
   75.8590   40.4537   38.4357 H   0  0  0  0  0  0  0  0  0  0  0  0
   72.3717   40.4446   39.8920 H   0  0  0  0  0  0  0  0  0  0  0  0
   74.7030   37.0785   39.5053 H   0  0  0  0  0  0  0  0  0  0  0  0
   74.8552   38.1464   38.0990 H   0  0  0  0  0  0  0  0  0  0  0  0
   75.6166   38.7743   40.9915 H   0  0  0  0  0  0  0  0  0  0  0  0
   76.7628   38.4749   39.6917 H   0  0  0  0  0  0  0  0  0  0  0  0
  1 20  1  0  0  0  0
  1  2  1  0  0  0  0
  1 11  2  0  0  0  0
  2 21  1  0  0  0  0
  2  3  2  0  0  0  0
  3  4  1  0  0  0  0
  3  9  1  0  0  0  0
  4  5  2  0  0  0  0
  4  6  1  0  0  0  0
  6  7  1  0  0  0  0
 12  6  1  0  0  0  0
  7  8  2  0  0  0  0
  7  9  1  0  0  0  0
  9 10  2  0  0  0  0
 10 22  1  0  0  0  0
 10 11  1  0  0  0  0
 11 23  1  0  0  0  0
 12 24  1  0  0  0  0
 12 13  1  0  0  0  0
 12 19  1  0  0  0  0
 13 14  2  0  0  0  0
 13 15  1  0  0  0  0
 15 25  1  0  0  0  0
 15 16  1  0  0  0  0
 16 17  2  0  0  0  0
 16 18  1  0  0  0  0
 18 26  1  0  0  0  0
 18 27  1  0  0  0  0
 18 19  1  0  0  0  0
 19 28  1  0  0  0  0
 19 29  1  0  0  0  0
M  ZZC   1 c1
M  ZZC   2 c2
M  ZZC   3 c3
M  ZZC   4 c4
M  ZZC   5 o1
M  ZZC   6 n1
M  ZZC   7 c5
M  ZZC   8 o2
M  ZZC   9 c6
M  ZZC  10 c7
M  ZZC  11 c8
M  ZZC  12 c9
M  ZZC  13 c10
M  ZZC  14 o3
M  ZZC  15 n2
M  ZZC  16 c11
M  ZZC  17 o4
M  ZZC  18 c12
M  ZZC  19 c13
M  ZZC  20 h11
M  ZZC  21 h21
M  ZZC  22 h71
M  ZZC  23 h81
M  ZZC  24 h91
M  ZZC  25 h01
M  ZZC  26 h121
M  ZZC  27 h122
M  ZZC  28 h131
M  ZZC  29 h132
M  ZZM   1 37
M  ZZI   1 125
M  ZZM   2 37
M  ZZI   2 125
M  ZZM   3 37
M  ZZI   3 124
M  ZZM   4 3
M  ZZI   4 121
M  ZZM   5 7
M  ZZI   5 81
M  ZZM   6 10
M  ZZI   6 192
M  ZZM   7 3
M  ZZI   7 121
M  ZZM   8 7
M  ZZI   8 81
M  ZZM   9 37
M  ZZI   9 124
M  ZZM  10 37
M  ZZI  10 125
M  ZZM  11 37
M  ZZI  11 125
M  ZZM  12 1
M  ZZI  12 113
M  ZZM  13 3
M  ZZI  13 121
M  ZZM  14 7
M  ZZI  14 81
M  ZZM  15 10
M  ZZI  15 191
M  ZZM  16 3
M  ZZI  16 121
M  ZZM  17 7
M  ZZI  17 81
M  ZZM  18 1
M  ZZI  18 112
M  ZZM  19 1
M  ZZI  19 112
M  ZZM  20 5
M  ZZI  20 1
M  ZZM  21 5
M  ZZI  21 1
M  ZZM  22 5
M  ZZI  22 1
M  ZZM  23 5
M  ZZI  23 1
M  ZZM  24 5
M  ZZI  24 1
M  ZZM  25 28
M  ZZI  25 11
M  ZZM  26 5
M  ZZI  26 1
M  ZZM  27 5
M  ZZI  27 1
M  ZZM  28 5
M  ZZI  28 1
M  ZZM  29 5
M  ZZI  29 1
M  END
> <IX>
1

> <NAME>
Cereblon_5J8O_8.pdb

> <Score>
-19.449774

> <Natom>
29

> <Nflex>
1

> <Hbond>
-3.35374

> <Hphob>
-3.52798

> <VwInt>
-22.738428

> <Dsolv>
11.994065

> <SolEl>
5.547691

> <Eintl>
1.467228

> <RecConf>
ND

> <projPath>
Cereblon_maps/

> <NAME_>
Cereblon_5J8O_8.pdb

$$$$
