Cereblon_4IPF_5.pdb
  MOLSOFT 04032206223D

 30 32  0  0  1  0  0  0  0  0999 V2000
   78.9639   42.3520   42.8082 C   0  0  0  0  0  0  0  0  0  0  0  0
   78.1568   42.0584   41.7217 C   0  0  0  0  0  0  0  0  0  0  0  0
   78.1631   42.8647   40.6142 C   0  0  0  0  0  0  0  0  0  0  0  0
   77.2330   42.3036   39.6268 C   0  0  0  0  0  0  0  0  0  0  0  0
   77.0138   42.7700   38.5162 O   0  0  0  0  0  0  0  0  0  0  0  0
   76.7085   41.1590   40.1954 N   0  0  0  0  0  0  0  0  0  0  0  0
   75.6950   40.3309   39.5369 C   0  0  2  0  0  0  0  0  0  0  0  0
   74.3115   40.9148   39.7956 C   0  0  0  0  0  0  0  0  0  0  0  0
   74.1229   42.1026   40.0017 O   0  0  0  0  0  0  0  0  0  0  0  0
   73.2569   40.0391   39.7115 N   0  0  0  0  0  0  0  0  0  0  0  0
   73.2889   38.6893   39.4632 C   0  0  0  0  0  0  0  0  0  0  0  0
   72.2697   38.0209   39.4092 O   0  0  0  0  0  0  0  0  0  0  0  0
   74.6519   38.0947   39.2099 C   0  0  0  0  0  0  0  0  0  0  0  0
   75.7343   38.8634   39.9464 C   0  0  0  0  0  0  0  0  0  0  0  0
   77.2329   40.9129   41.5290 C   0  0  0  0  0  0  0  0  0  0  0  0
   78.9677   43.9821   40.5059 C   0  0  0  0  0  0  0  0  0  0  0  0
   79.7896   44.2739   41.5858 C   0  0  0  0  0  0  0  0  0  0  0  0
   79.7866   43.4689   42.7229 C   0  0  0  0  0  0  0  0  0  0  0  0
   78.9647   41.7264   43.6962 H   0  0  0  0  0  0  0  0  0  0  0  0
   75.8593   40.4210   38.4610 H   0  0  0  0  0  0  0  0  0  0  0  0
   72.3397   40.4427   39.8559 H   0  0  0  0  0  0  0  0  0  0  0  0
   74.6470   37.0528   39.5459 H   0  0  0  0  0  0  0  0  0  0  0  0
   74.8266   38.1018   38.1294 H   0  0  0  0  0  0  0  0  0  0  0  0
   75.5795   38.7593   41.0250 H   0  0  0  0  0  0  0  0  0  0  0  0
   76.7162   38.4323   39.7246 H   0  0  0  0  0  0  0  0  0  0  0  0
   77.7750   39.9613   41.5415 H   0  0  0  0  0  0  0  0  0  0  0  0
   76.4239   40.9133   42.2625 H   0  0  0  0  0  0  0  0  0  0  0  0
   78.9543   44.6015   39.6164 H   0  0  0  0  0  0  0  0  0  0  0  0
   80.4366   45.1427   41.5467 H   0  0  0  0  0  0  0  0  0  0  0  0
   80.4371   43.7180   43.5562 H   0  0  0  0  0  0  0  0  0  0  0  0
  1 19  1  0  0  0  0
  1 18  2  0  0  0  0
  1  2  1  0  0  0  0
  2  3  2  0  0  0  0
  2 15  1  0  0  0  0
  3 16  1  0  0  0  0
  3  4  1  0  0  0  0
  4  6  1  0  0  0  0
  4  5  2  0  0  0  0
  6 15  1  0  0  0  0
  7  6  1  0  0  0  0
  7 20  1  0  0  0  0
  7  8  1  0  0  0  0
  7 14  1  0  0  0  0
  8  9  2  0  0  0  0
  8 10  1  0  0  0  0
 10 21  1  0  0  0  0
 10 11  1  0  0  0  0
 11 12  2  0  0  0  0
 11 13  1  0  0  0  0
 13 22  1  0  0  0  0
 13 23  1  0  0  0  0
 13 14  1  0  0  0  0
 14 24  1  0  0  0  0
 14 25  1  0  0  0  0
 15 26  1  0  0  0  0
 15 27  1  0  0  0  0
 16 17  2  0  0  0  0
 16 28  1  0  0  0  0
 17 18  1  0  0  0  0
 17 29  1  0  0  0  0
 18 30  1  0  0  0  0
M  ZZC   1 c1
M  ZZC   2 c2
M  ZZC   3 c3
M  ZZC   4 c4
M  ZZC   5 o1
M  ZZC   6 n1
M  ZZC   7 c5
M  ZZC   8 c6
M  ZZC   9 o2
M  ZZC  10 n2
M  ZZC  11 c7
M  ZZC  12 o3
M  ZZC  13 c8
M  ZZC  14 c9
M  ZZC  15 c10
M  ZZC  16 c11
M  ZZC  17 c12
M  ZZC  18 c13
M  ZZC  19 h11
M  ZZC  20 h51
M  ZZC  21 h21
M  ZZC  22 h81
M  ZZC  23 h82
M  ZZC  24 h91
M  ZZC  25 h92
M  ZZC  26 h101
M  ZZC  27 h102
M  ZZC  28 h111
M  ZZC  29 h121
M  ZZC  30 h131
M  ZZM   1 37
M  ZZI   1 125
M  ZZM   2 37
M  ZZI   2 124
M  ZZM   3 37
M  ZZI   3 124
M  ZZM   4 3
M  ZZI   4 121
M  ZZM   5 7
M  ZZI   5 81
M  ZZM   6 10
M  ZZI   6 192
M  ZZM   7 1
M  ZZI   7 113
M  ZZM   8 3
M  ZZI   8 121
M  ZZM   9 7
M  ZZI   9 81
M  ZZM  10 10
M  ZZI  10 191
M  ZZM  11 3
M  ZZI  11 121
M  ZZM  12 7
M  ZZI  12 81
M  ZZM  13 1
M  ZZI  13 112
M  ZZM  14 1
M  ZZI  14 112
M  ZZM  15 1
M  ZZI  15 112
M  ZZM  16 37
M  ZZI  16 125
M  ZZM  17 37
M  ZZI  17 125
M  ZZM  18 37
M  ZZI  18 125
M  ZZM  19 5
M  ZZI  19 1
M  ZZM  20 5
M  ZZI  20 1
M  ZZM  21 28
M  ZZI  21 11
M  ZZM  22 5
M  ZZI  22 1
M  ZZM  23 5
M  ZZI  23 1
M  ZZM  24 5
M  ZZI  24 1
M  ZZM  25 5
M  ZZI  25 1
M  ZZM  26 5
M  ZZI  26 1
M  ZZM  27 5
M  ZZI  27 1
M  ZZM  28 5
M  ZZI  28 1
M  ZZM  29 5
M  ZZI  29 1
M  ZZM  30 5
M  ZZI  30 1
M  END
> <IX>
1

> <NAME>
Cereblon_4IPF_5.pdb

> <Score>
-18.812426

> <Natom>
30

> <Nflex>
1

> <Hbond>
-3.223958

> <Hphob>
-3.857036

> <VwInt>
-21.112812

> <Dsolv>
10.958837

> <SolEl>
5.440997

> <Eintl>
1.051713

> <RecConf>
ND

> <projPath>
Cereblon_maps/

> <NAME_>
Cereblon_4IPF_5.pdb

$$$$
