Cereblon_5HZN_9.pdb
  MOLSOFT 04032206253D

 31 33  0  0  1  0  0  0  0  0999 V2000
   78.8129   41.6776   43.8181 N   0  0  0  0  0  0  0  0  0  0  0  0
   78.9066   42.4226   42.6320 C   0  0  0  0  0  0  0  0  0  0  0  0
   78.1004   42.1569   41.5379 C   0  0  0  0  0  0  0  0  0  0  0  0
   77.1790   41.0467   41.3307 C   0  0  0  0  0  0  0  0  0  0  0  0
   76.9980   40.1638   42.1561 O   0  0  0  0  0  0  0  0  0  0  0  0
   76.6442   41.2116   40.0685 N   0  0  0  0  0  0  0  0  0  0  0  0
   77.1659   42.3320   39.4546 C   0  0  0  0  0  0  0  0  0  0  0  0
   76.9541   42.7547   38.3253 O   0  0  0  0  0  0  0  0  0  0  0  0
   78.0971   42.9270   40.4146 C   0  0  0  0  0  0  0  0  0  0  0  0
   78.9083   44.0367   40.2936 C   0  0  0  0  0  0  0  0  0  0  0  0
   79.7241   44.3366   41.3784 C   0  0  0  0  0  0  0  0  0  0  0  0
   79.7113   43.5539   42.5344 C   0  0  0  0  0  0  0  0  0  0  0  0
   75.6251   40.3748   39.4313 C   0  0  2  0  0  0  0  0  0  0  0  0
   74.2532   40.9526   39.7355 C   0  0  0  0  0  0  0  0  0  0  0  0
   74.0818   42.1324   39.9939 O   0  0  0  0  0  0  0  0  0  0  0  0
   73.1928   40.0870   39.6219 N   0  0  0  0  0  0  0  0  0  0  0  0
   73.2183   38.7493   39.3090 C   0  0  0  0  0  0  0  0  0  0  0  0
   72.1931   38.0968   39.2005 O   0  0  0  0  0  0  0  0  0  0  0  0
   74.5816   38.1513   39.0553 C   0  0  0  0  0  0  0  0  0  0  0  0
   75.6588   38.9002   39.8199 C   0  0  0  0  0  0  0  0  0  0  0  0
   79.5520   41.7618   44.5125 H   0  0  0  0  0  0  0  0  0  0  0  0
   78.3219   40.7832   43.7762 H   0  0  0  0  0  0  0  0  0  0  0  0
   78.9017   44.6443   39.3966 H   0  0  0  0  0  0  0  0  0  0  0  0
   80.3728   45.2043   41.3339 H   0  0  0  0  0  0  0  0  0  0  0  0
   80.3423   43.8359   43.3719 H   0  0  0  0  0  0  0  0  0  0  0  0
   75.7600   40.4748   38.3531 H   0  0  0  0  0  0  0  0  0  0  0  0
   72.2773   40.4887   39.7817 H   0  0  0  0  0  0  0  0  0  0  0  0
   74.5668   37.1033   39.3710 H   0  0  0  0  0  0  0  0  0  0  0  0
   74.7689   38.1777   37.9773 H   0  0  0  0  0  0  0  0  0  0  0  0
   75.4719   38.7723   40.8900 H   0  0  0  0  0  0  0  0  0  0  0  0
   76.6440   38.4695   39.6139 H   0  0  0  0  0  0  0  0  0  0  0  0
  1  2  1  0  0  0  0
  1 21  1  0  0  0  0
  1 22  1  0  0  0  0
  2  3  1  0  0  0  0
  2 12  2  0  0  0  0
  3  9  2  0  0  0  0
  3  4  1  0  0  0  0
  4  5  2  0  0  0  0
  4  6  1  0  0  0  0
  6  7  1  0  0  0  0
 13  6  1  0  0  0  0
  7  8  2  0  0  0  0
  7  9  1  0  0  0  0
  9 10  1  0  0  0  0
 10 23  1  0  0  0  0
 10 11  2  0  0  0  0
 11 12  1  0  0  0  0
 11 24  1  0  0  0  0
 12 25  1  0  0  0  0
 13 26  1  0  0  0  0
 13 14  1  0  0  0  0
 13 20  1  0  0  0  0
 14 15  2  0  0  0  0
 14 16  1  0  0  0  0
 16 27  1  0  0  0  0
 16 17  1  0  0  0  0
 17 18  2  0  0  0  0
 17 19  1  0  0  0  0
 19 28  1  0  0  0  0
 19 29  1  0  0  0  0
 19 20  1  0  0  0  0
 20 30  1  0  0  0  0
 20 31  1  0  0  0  0
M  ZZC   1 n1
M  ZZC   2 c1
M  ZZC   3 c2
M  ZZC   4 c3
M  ZZC   5 o1
M  ZZC   6 n2
M  ZZC   7 c4
M  ZZC   8 o2
M  ZZC   9 c5
M  ZZC  10 c6
M  ZZC  11 c7
M  ZZC  12 c8
M  ZZC  13 c9
M  ZZC  14 c10
M  ZZC  15 o3
M  ZZC  16 n3
M  ZZC  17 c11
M  ZZC  18 o4
M  ZZC  19 c12
M  ZZC  20 c13
M  ZZC  21 h11
M  ZZC  22 h12
M  ZZC  23 h61
M  ZZC  24 h71
M  ZZC  25 h81
M  ZZC  26 h91
M  ZZC  27 h31
M  ZZC  28 h121
M  ZZC  29 h122
M  ZZC  30 h131
M  ZZC  31 h132
M  ZZM   1 40
M  ZZI   1 224
M  ZZM   2 37
M  ZZI   2 124
M  ZZM   3 37
M  ZZI   3 124
M  ZZM   4 3
M  ZZI   4 121
M  ZZM   5 7
M  ZZI   5 81
M  ZZM   6 10
M  ZZI   6 192
M  ZZM   7 3
M  ZZI   7 121
M  ZZM   8 7
M  ZZI   8 81
M  ZZM   9 37
M  ZZI   9 124
M  ZZM  10 37
M  ZZI  10 125
M  ZZM  11 37
M  ZZI  11 125
M  ZZM  12 37
M  ZZI  12 125
M  ZZM  13 1
M  ZZI  13 113
M  ZZM  14 3
M  ZZI  14 121
M  ZZM  15 7
M  ZZI  15 81
M  ZZM  16 10
M  ZZI  16 191
M  ZZM  17 3
M  ZZI  17 121
M  ZZM  18 7
M  ZZI  18 81
M  ZZM  19 1
M  ZZI  19 112
M  ZZM  20 1
M  ZZI  20 112
M  ZZM  21 28
M  ZZI  21 11
M  ZZM  22 28
M  ZZI  22 11
M  ZZM  23 5
M  ZZI  23 1
M  ZZM  24 5
M  ZZI  24 1
M  ZZM  25 5
M  ZZI  25 1
M  ZZM  26 5
M  ZZI  26 1
M  ZZM  27 28
M  ZZI  27 11
M  ZZM  28 5
M  ZZI  28 1
M  ZZM  29 5
M  ZZI  29 1
M  ZZM  30 5
M  ZZI  30 1
M  ZZM  31 5
M  ZZI  31 1
M  END
> <IX>
1

> <NAME>
Cereblon_5HZN_9.pdb

> <Score>
-18.369215

> <Natom>
31

> <Nflex>
1

> <Hbond>
-3.621253

> <Hphob>
-3.582949

> <VwInt>
-24.37025

> <Dsolv>
15.179474

> <SolEl>
6.921374

> <Eintl>
1.684447

> <RecConf>
ND

> <projPath>
Cereblon_maps/

> <NAME_>
Cereblon_5HZN_9.pdb

$$$$
