Cereblon_5VBP_35.pdb
  MOLSOFT 04032206283D

 30 32  0  0  1  0  0  0  0  0999 V2000
   78.9569   42.3475   42.8100 C   0  0  0  0  0  0  0  0  0  0  0  0
   78.1521   42.0548   41.7215 C   0  0  0  0  0  0  0  0  0  0  0  0
   78.1610   42.8612   40.6142 C   0  0  0  0  0  0  0  0  0  0  0  0
   77.2316   42.3013   39.6254 C   0  0  0  0  0  0  0  0  0  0  0  0
   77.0138   42.7687   38.5150 O   0  0  0  0  0  0  0  0  0  0  0  0
   76.7058   41.1566   40.1926 N   0  0  0  0  0  0  0  0  0  0  0  0
   75.6912   40.3305   39.5335 C   0  0  2  0  0  0  0  0  0  0  0  0
   74.3090   40.9168   39.7935 C   0  0  0  0  0  0  0  0  0  0  0  0
   74.1230   42.1045   40.0016 O   0  0  0  0  0  0  0  0  0  0  0  0
   73.2526   40.0432   39.7083 N   0  0  0  0  0  0  0  0  0  0  0  0
   73.2824   38.6942   39.4548 C   0  0  0  0  0  0  0  0  0  0  0  0
   72.2616   38.0287   39.3945 O   0  0  0  0  0  0  0  0  0  0  0  0
   74.6447   38.0969   39.2032 C   0  0  0  0  0  0  0  0  0  0  0  0
   75.7277   38.8627   39.9419 C   0  0  0  0  0  0  0  0  0  0  0  0
   77.2281   40.9097   41.5269 C   0  0  0  0  0  0  0  0  0  0  0  0
   78.9671   43.9776   40.5077 C   0  0  0  0  0  0  0  0  0  0  0  0
   79.7869   44.2685   41.5895 C   0  0  0  0  0  0  0  0  0  0  0  0
   79.7801   43.4643   42.7272 C   0  0  0  0  0  0  0  0  0  0  0  0
   78.9548   41.7220   43.6980 H   0  0  0  0  0  0  0  0  0  0  0  0
   75.8549   40.4219   38.4576 H   0  0  0  0  0  0  0  0  0  0  0  0
   72.3358   40.4479   39.8520 H   0  0  0  0  0  0  0  0  0  0  0  0
   74.6369   37.0547   39.5379 H   0  0  0  0  0  0  0  0  0  0  0  0
   74.8217   38.1055   38.1230 H   0  0  0  0  0  0  0  0  0  0  0  0
   75.5712   38.7578   41.0202 H   0  0  0  0  0  0  0  0  0  0  0  0
   76.7090   38.4297   39.7215 H   0  0  0  0  0  0  0  0  0  0  0  0
   77.7703   39.9582   41.5394 H   0  0  0  0  0  0  0  0  0  0  0  0
   76.4181   40.9094   42.2592 H   0  0  0  0  0  0  0  0  0  0  0  0
   78.9560   44.5970   39.6182 H   0  0  0  0  0  0  0  0  0  0  0  0
   80.4348   45.1368   41.5518 H   0  0  0  0  0  0  0  0  0  0  0  0
   80.4280   43.7134   43.5625 H   0  0  0  0  0  0  0  0  0  0  0  0
  1 19  1  0  0  0  0
  1 18  2  0  0  0  0
  1  2  1  0  0  0  0
  2  3  2  0  0  0  0
  2 15  1  0  0  0  0
  3 16  1  0  0  0  0
  3  4  1  0  0  0  0
  4  6  1  0  0  0  0
  4  5  2  0  0  0  0
  6 15  1  0  0  0  0
  7  6  1  0  0  0  0
  7 20  1  0  0  0  0
  7  8  1  0  0  0  0
  7 14  1  0  0  0  0
  8  9  2  0  0  0  0
  8 10  1  0  0  0  0
 10 21  1  0  0  0  0
 10 11  1  0  0  0  0
 11 12  2  0  0  0  0
 11 13  1  0  0  0  0
 13 22  1  0  0  0  0
 13 23  1  0  0  0  0
 13 14  1  0  0  0  0
 14 24  1  0  0  0  0
 14 25  1  0  0  0  0
 15 26  1  0  0  0  0
 15 27  1  0  0  0  0
 16 17  2  0  0  0  0
 16 28  1  0  0  0  0
 17 18  1  0  0  0  0
 17 29  1  0  0  0  0
 18 30  1  0  0  0  0
M  ZZC   1 c1
M  ZZC   2 c2
M  ZZC   3 c3
M  ZZC   4 c4
M  ZZC   5 o1
M  ZZC   6 n1
M  ZZC   7 c5
M  ZZC   8 c6
M  ZZC   9 o2
M  ZZC  10 n2
M  ZZC  11 c7
M  ZZC  12 o3
M  ZZC  13 c8
M  ZZC  14 c9
M  ZZC  15 c10
M  ZZC  16 c11
M  ZZC  17 c12
M  ZZC  18 c13
M  ZZC  19 h11
M  ZZC  20 h51
M  ZZC  21 h21
M  ZZC  22 h81
M  ZZC  23 h82
M  ZZC  24 h91
M  ZZC  25 h92
M  ZZC  26 h101
M  ZZC  27 h102
M  ZZC  28 h111
M  ZZC  29 h121
M  ZZC  30 h131
M  ZZM   1 37
M  ZZI   1 125
M  ZZM   2 37
M  ZZI   2 124
M  ZZM   3 37
M  ZZI   3 124
M  ZZM   4 3
M  ZZI   4 121
M  ZZM   5 7
M  ZZI   5 81
M  ZZM   6 10
M  ZZI   6 192
M  ZZM   7 1
M  ZZI   7 113
M  ZZM   8 3
M  ZZI   8 121
M  ZZM   9 7
M  ZZI   9 81
M  ZZM  10 10
M  ZZI  10 191
M  ZZM  11 3
M  ZZI  11 121
M  ZZM  12 7
M  ZZI  12 81
M  ZZM  13 1
M  ZZI  13 112
M  ZZM  14 1
M  ZZI  14 112
M  ZZM  15 1
M  ZZI  15 112
M  ZZM  16 37
M  ZZI  16 125
M  ZZM  17 37
M  ZZI  17 125
M  ZZM  18 37
M  ZZI  18 125
M  ZZM  19 5
M  ZZI  19 1
M  ZZM  20 5
M  ZZI  20 1
M  ZZM  21 28
M  ZZI  21 11
M  ZZM  22 5
M  ZZI  22 1
M  ZZM  23 5
M  ZZI  23 1
M  ZZM  24 5
M  ZZI  24 1
M  ZZM  25 5
M  ZZI  25 1
M  ZZM  26 5
M  ZZI  26 1
M  ZZM  27 5
M  ZZI  27 1
M  ZZM  28 5
M  ZZI  28 1
M  ZZM  29 5
M  ZZI  29 1
M  ZZM  30 5
M  ZZI  30 1
M  END
> <IX>
1

> <NAME>
Cereblon_5VBP_35.pdb

> <Score>
-18.879789

> <Natom>
30

> <Nflex>
1

> <Hbond>
-3.276636

> <Hphob>
-3.897429

> <VwInt>
-21.048597

> <Dsolv>
10.999338

> <SolEl>
5.443184

> <Eintl>
1.046615

> <RecConf>
ND

> <projPath>
Cereblon_maps/

> <NAME_>
Cereblon_5VBP_35.pdb

$$$$
