Cereblon_5UVX_3.pdb
  MOLSOFT 04032206273D

 30 32  0  0  1  0  0  0  0  0999 V2000
   76.1673   40.7111   40.6727 C   0  0  0  0  0  0  0  0  0  0  0  0
   75.3216   40.9418   39.6003 C   0  0  0  0  0  0  0  0  0  0  0  0
   75.5138   42.0308   38.7985 C   0  0  0  0  0  0  0  0  0  0  0  0
   74.5030   42.0051   37.7391 C   0  0  0  0  0  0  0  0  0  0  0  0
   74.4628   42.8182   36.8301 O   0  0  0  0  0  0  0  0  0  0  0  0
   73.6994   40.9066   37.9785 N   0  0  0  0  0  0  0  0  0  0  0  0
   72.5435   40.4582   37.1877 C   0  0  2  0  0  0  0  0  0  0  0  0
   72.9934   39.9605   35.8247 C   0  0  0  0  0  0  0  0  0  0  0  0
   73.6110   38.9153   35.6895 O   0  0  0  0  0  0  0  0  0  0  0  0
   72.7229   40.7717   34.7498 N   0  0  0  0  0  0  0  0  0  0  0  0
   71.9969   41.9360   34.7052 C   0  0  0  0  0  0  0  0  0  0  0  0
   71.7588   42.4960   33.6472 O   0  0  0  0  0  0  0  0  0  0  0  0
   71.5268   42.5001   36.0228 C   0  0  0  0  0  0  0  0  0  0  0  0
   71.3718   41.4316   37.0916 C   0  0  0  0  0  0  0  0  0  0  0  0
   74.1518   40.1533   39.1337 C   0  0  0  0  0  0  0  0  0  0  0  0
   76.5181   42.9575   39.0095 C   0  0  0  0  0  0  0  0  0  0  0  0
   77.3453   42.7494   40.1030 C   0  0  0  0  0  0  0  0  0  0  0  0
   77.1747   41.6345   40.9209 C   0  0  0  0  0  0  0  0  0  0  0  0
   76.0554   39.8383   41.3068 H   0  0  0  0  0  0  0  0  0  0  0  0
   72.1578   39.5746   37.7087 H   0  0  0  0  0  0  0  0  0  0  0  0
   73.0860   40.4479   33.8609 H   0  0  0  0  0  0  0  0  0  0  0  0
   72.2187   43.2853   36.3335 H   0  0  0  0  0  0  0  0  0  0  0  0
   70.5581   42.9845   35.8594 H   0  0  0  0  0  0  0  0  0  0  0  0
   71.1718   41.8932   38.0630 H   0  0  0  0  0  0  0  0  0  0  0  0
   70.4798   40.8500   36.8416 H   0  0  0  0  0  0  0  0  0  0  0  0
   74.4402   39.1429   38.8228 H   0  0  0  0  0  0  0  0  0  0  0  0
   73.3532   40.1294   39.8834 H   0  0  0  0  0  0  0  0  0  0  0  0
   76.6547   43.8129   38.3554 H   0  0  0  0  0  0  0  0  0  0  0  0
   78.1419   43.4553   40.3170 H   0  0  0  0  0  0  0  0  0  0  0  0
   77.8426   41.4843   41.7635 H   0  0  0  0  0  0  0  0  0  0  0  0
  1 19  1  0  0  0  0
  1 18  2  0  0  0  0
  1  2  1  0  0  0  0
  2  3  2  0  0  0  0
  2 15  1  0  0  0  0
  3 16  1  0  0  0  0
  3  4  1  0  0  0  0
  4  6  1  0  0  0  0
  4  5  2  0  0  0  0
  6 15  1  0  0  0  0
  7  6  1  0  0  0  0
  7 20  1  0  0  0  0
  7  8  1  0  0  0  0
  7 14  1  0  0  0  0
  8  9  2  0  0  0  0
  8 10  1  0  0  0  0
 10 21  1  0  0  0  0
 10 11  1  0  0  0  0
 11 12  2  0  0  0  0
 11 13  1  0  0  0  0
 13 22  1  0  0  0  0
 13 23  1  0  0  0  0
 13 14  1  0  0  0  0
 14 24  1  0  0  0  0
 14 25  1  0  0  0  0
 15 26  1  0  0  0  0
 15 27  1  0  0  0  0
 16 17  2  0  0  0  0
 16 28  1  0  0  0  0
 17 18  1  0  0  0  0
 17 29  1  0  0  0  0
 18 30  1  0  0  0  0
M  ZZC   1 c1
M  ZZC   2 c2
M  ZZC   3 c3
M  ZZC   4 c4
M  ZZC   5 o1
M  ZZC   6 n1
M  ZZC   7 c5
M  ZZC   8 c6
M  ZZC   9 o2
M  ZZC  10 n2
M  ZZC  11 c7
M  ZZC  12 o3
M  ZZC  13 c8
M  ZZC  14 c9
M  ZZC  15 c10
M  ZZC  16 c11
M  ZZC  17 c12
M  ZZC  18 c13
M  ZZC  19 h11
M  ZZC  20 h51
M  ZZC  21 h21
M  ZZC  22 h81
M  ZZC  23 h82
M  ZZC  24 h91
M  ZZC  25 h92
M  ZZC  26 h101
M  ZZC  27 h102
M  ZZC  28 h111
M  ZZC  29 h121
M  ZZC  30 h131
M  ZZM   1 37
M  ZZI   1 125
M  ZZM   2 37
M  ZZI   2 124
M  ZZM   3 37
M  ZZI   3 124
M  ZZM   4 3
M  ZZI   4 121
M  ZZM   5 7
M  ZZI   5 81
M  ZZM   6 10
M  ZZI   6 192
M  ZZM   7 1
M  ZZI   7 113
M  ZZM   8 3
M  ZZI   8 121
M  ZZM   9 7
M  ZZI   9 81
M  ZZM  10 10
M  ZZI  10 191
M  ZZM  11 3
M  ZZI  11 121
M  ZZM  12 7
M  ZZI  12 81
M  ZZM  13 1
M  ZZI  13 112
M  ZZM  14 1
M  ZZI  14 112
M  ZZM  15 1
M  ZZI  15 112
M  ZZM  16 37
M  ZZI  16 125
M  ZZM  17 37
M  ZZI  17 125
M  ZZM  18 37
M  ZZI  18 125
M  ZZM  19 5
M  ZZI  19 1
M  ZZM  20 5
M  ZZI  20 1
M  ZZM  21 28
M  ZZI  21 11
M  ZZM  22 5
M  ZZI  22 1
M  ZZM  23 5
M  ZZI  23 1
M  ZZM  24 5
M  ZZI  24 1
M  ZZM  25 5
M  ZZI  25 1
M  ZZM  26 5
M  ZZI  26 1
M  ZZM  27 5
M  ZZI  27 1
M  ZZM  28 5
M  ZZI  28 1
M  ZZM  29 5
M  ZZI  29 1
M  ZZM  30 5
M  ZZI  30 1
M  END
> <IX>
1

> <NAME>
Cereblon_5UVX_3.pdb

> <Score>
-10.060936

> <Natom>
30

> <Nflex>
1

> <Hbond>
-0.502984

> <Hphob>
-4.044312

> <VwInt>
-23.758997

> <Dsolv>
13.522528

> <SolEl>
6.831602

> <Eintl>
4.049244

> <RecConf>
ND

> <projPath>
Cereblon_maps/

> <NAME_>
Cereblon_5UVX_3.pdb

$$$$
