Cereblon_3LQ5_13.pdb
  MOLSOFT 04032206223D

 31 33  0  0  1  0  0  0  0  0999 V2000
   78.8148   41.6768   43.8189 N   0  0  0  0  0  0  0  0  0  0  0  0
   78.9074   42.4223   42.6331 C   0  0  0  0  0  0  0  0  0  0  0  0
   78.1012   42.1574   41.5387 C   0  0  0  0  0  0  0  0  0  0  0  0
   77.1803   41.0468   41.3313 C   0  0  0  0  0  0  0  0  0  0  0  0
   76.9993   40.1638   42.1567 O   0  0  0  0  0  0  0  0  0  0  0  0
   76.6452   41.2119   40.0695 N   0  0  0  0  0  0  0  0  0  0  0  0
   77.1666   42.3324   39.4557 C   0  0  0  0  0  0  0  0  0  0  0  0
   76.9545   42.7551   38.3266 O   0  0  0  0  0  0  0  0  0  0  0  0
   78.0980   42.9275   40.4155 C   0  0  0  0  0  0  0  0  0  0  0  0
   78.9083   44.0378   40.2955 C   0  0  0  0  0  0  0  0  0  0  0  0
   79.7237   44.3378   41.3808 C   0  0  0  0  0  0  0  0  0  0  0  0
   79.7113   43.5541   42.5363 C   0  0  0  0  0  0  0  0  0  0  0  0
   75.6260   40.3753   39.4323 C   0  0  2  0  0  0  0  0  0  0  0  0
   74.2542   40.9541   39.7354 C   0  0  0  0  0  0  0  0  0  0  0  0
   74.0832   42.1343   39.9917 O   0  0  0  0  0  0  0  0  0  0  0  0
   73.1931   40.0892   39.6230 N   0  0  0  0  0  0  0  0  0  0  0  0
   73.2181   38.7512   39.3115 C   0  0  0  0  0  0  0  0  0  0  0  0
   72.1929   38.0985   39.2042 O   0  0  0  0  0  0  0  0  0  0  0  0
   74.5812   38.1526   39.0577 C   0  0  0  0  0  0  0  0  0  0  0  0
   75.6588   38.9012   39.8220 C   0  0  0  0  0  0  0  0  0  0  0  0
   79.5536   41.7609   44.5137 H   0  0  0  0  0  0  0  0  0  0  0  0
   78.3235   40.7824   43.7769 H   0  0  0  0  0  0  0  0  0  0  0  0
   78.9007   44.6473   39.3990 H   0  0  0  0  0  0  0  0  0  0  0  0
   80.3712   45.2067   41.3369 H   0  0  0  0  0  0  0  0  0  0  0  0
   80.3424   43.8360   43.3734 H   0  0  0  0  0  0  0  0  0  0  0  0
   75.7619   40.4744   38.3540 H   0  0  0  0  0  0  0  0  0  0  0  0
   72.2782   40.4920   39.7828 H   0  0  0  0  0  0  0  0  0  0  0  0
   74.5667   37.1046   39.3734 H   0  0  0  0  0  0  0  0  0  0  0  0
   74.7695   38.1786   37.9799 H   0  0  0  0  0  0  0  0  0  0  0  0
   75.4730   38.7741   40.8925 H   0  0  0  0  0  0  0  0  0  0  0  0
   76.6437   38.4700   39.6160 H   0  0  0  0  0  0  0  0  0  0  0  0
  1  2  1  0  0  0  0
  1 21  1  0  0  0  0
  1 22  1  0  0  0  0
  2  3  1  0  0  0  0
  2 12  2  0  0  0  0
  3  9  2  0  0  0  0
  3  4  1  0  0  0  0
  4  5  2  0  0  0  0
  4  6  1  0  0  0  0
  6  7  1  0  0  0  0
 13  6  1  0  0  0  0
  7  8  2  0  0  0  0
  7  9  1  0  0  0  0
  9 10  1  0  0  0  0
 10 23  1  0  0  0  0
 10 11  2  0  0  0  0
 11 12  1  0  0  0  0
 11 24  1  0  0  0  0
 12 25  1  0  0  0  0
 13 26  1  0  0  0  0
 13 14  1  0  0  0  0
 13 20  1  0  0  0  0
 14 15  2  0  0  0  0
 14 16  1  0  0  0  0
 16 27  1  0  0  0  0
 16 17  1  0  0  0  0
 17 18  2  0  0  0  0
 17 19  1  0  0  0  0
 19 28  1  0  0  0  0
 19 29  1  0  0  0  0
 19 20  1  0  0  0  0
 20 30  1  0  0  0  0
 20 31  1  0  0  0  0
M  ZZC   1 n1
M  ZZC   2 c1
M  ZZC   3 c2
M  ZZC   4 c3
M  ZZC   5 o1
M  ZZC   6 n2
M  ZZC   7 c4
M  ZZC   8 o2
M  ZZC   9 c5
M  ZZC  10 c6
M  ZZC  11 c7
M  ZZC  12 c8
M  ZZC  13 c9
M  ZZC  14 c10
M  ZZC  15 o3
M  ZZC  16 n3
M  ZZC  17 c11
M  ZZC  18 o4
M  ZZC  19 c12
M  ZZC  20 c13
M  ZZC  21 h11
M  ZZC  22 h12
M  ZZC  23 h61
M  ZZC  24 h71
M  ZZC  25 h81
M  ZZC  26 h91
M  ZZC  27 h31
M  ZZC  28 h121
M  ZZC  29 h122
M  ZZC  30 h131
M  ZZC  31 h132
M  ZZM   1 40
M  ZZI   1 224
M  ZZM   2 37
M  ZZI   2 124
M  ZZM   3 37
M  ZZI   3 124
M  ZZM   4 3
M  ZZI   4 121
M  ZZM   5 7
M  ZZI   5 81
M  ZZM   6 10
M  ZZI   6 192
M  ZZM   7 3
M  ZZI   7 121
M  ZZM   8 7
M  ZZI   8 81
M  ZZM   9 37
M  ZZI   9 124
M  ZZM  10 37
M  ZZI  10 125
M  ZZM  11 37
M  ZZI  11 125
M  ZZM  12 37
M  ZZI  12 125
M  ZZM  13 1
M  ZZI  13 113
M  ZZM  14 3
M  ZZI  14 121
M  ZZM  15 7
M  ZZI  15 81
M  ZZM  16 10
M  ZZI  16 191
M  ZZM  17 3
M  ZZI  17 121
M  ZZM  18 7
M  ZZI  18 81
M  ZZM  19 1
M  ZZI  19 112
M  ZZM  20 1
M  ZZI  20 112
M  ZZM  21 28
M  ZZI  21 11
M  ZZM  22 28
M  ZZI  22 11
M  ZZM  23 5
M  ZZI  23 1
M  ZZM  24 5
M  ZZI  24 1
M  ZZM  25 5
M  ZZI  25 1
M  ZZM  26 5
M  ZZI  26 1
M  ZZM  27 28
M  ZZI  27 11
M  ZZM  28 5
M  ZZI  28 1
M  ZZM  29 5
M  ZZI  29 1
M  ZZM  30 5
M  ZZI  30 1
M  ZZM  31 5
M  ZZI  31 1
M  END
> <IX>
1

> <NAME>
Cereblon_3LQ5_13.pdb

> <Score>
-18.349526

> <Natom>
31

> <Nflex>
1

> <Hbond>
-3.704927

> <Hphob>
-3.55518

> <VwInt>
-24.214516

> <Dsolv>
15.118096

> <SolEl>
7.073451

> <Eintl>
1.688961

> <RecConf>
ND

> <projPath>
Cereblon_maps/

> <NAME_>
Cereblon_3LQ5_13.pdb

$$$$
