Cereblon_3LQ5_8.pdb
  MOLSOFT 04032206213D

 29 31  0  0  1  0  0  0  0  0999 V2000
   79.0067   42.4940   42.6701 C   0  0  0  0  0  0  0  0  0  0  0  0
   78.1867   42.1978   41.5958 C   0  0  0  0  0  0  0  0  0  0  0  0
   77.2690   41.0793   41.4122 C   0  0  0  0  0  0  0  0  0  0  0  0
   77.0893   40.2193   42.2608 O   0  0  0  0  0  0  0  0  0  0  0  0
   76.7273   41.2202   40.1477 N   0  0  0  0  0  0  0  0  0  0  0  0
   77.2235   42.3462   39.5225 C   0  0  0  0  0  0  0  0  0  0  0  0
   76.9870   42.7641   38.3963 O   0  0  0  0  0  0  0  0  0  0  0  0
   78.1588   42.9592   40.4662 C   0  0  0  0  0  0  0  0  0  0  0  0
   78.9588   44.0747   40.3216 C   0  0  0  0  0  0  0  0  0  0  0  0
   79.8011   44.3862   41.3827 C   0  0  0  0  0  0  0  0  0  0  0  0
   79.8258   43.6092   42.5415 C   0  0  0  0  0  0  0  0  0  0  0  0
   75.7193   40.3644   39.5158 C   0  0  2  0  0  0  0  0  0  0  0  0
   74.3396   40.9322   39.8054 C   0  0  0  0  0  0  0  0  0  0  0  0
   74.1512   42.1182   40.0198 O   0  0  0  0  0  0  0  0  0  0  0  0
   73.2897   40.0496   39.7304 N   0  0  0  0  0  0  0  0  0  0  0  0
   73.3290   38.7039   39.4590 C   0  0  0  0  0  0  0  0  0  0  0  0
   72.3136   38.0299   39.4016 O   0  0  0  0  0  0  0  0  0  0  0  0
   74.6934   38.1237   39.1808 C   0  0  0  0  0  0  0  0  0  0  0  0
   75.7752   38.8939   39.9172 C   0  0  0  0  0  0  0  0  0  0  0  0
   79.0193   41.8797   43.5660 H   0  0  0  0  0  0  0  0  0  0  0  0
   78.9280   44.6749   39.4202 H   0  0  0  0  0  0  0  0  0  0  0  0
   80.4503   45.2514   41.3110 H   0  0  0  0  0  0  0  0  0  0  0  0
   80.4942   43.8777   43.3545 H   0  0  0  0  0  0  0  0  0  0  0  0
   75.8575   40.4527   38.4358 H   0  0  0  0  0  0  0  0  0  0  0  0
   72.3711   40.4430   39.8933 H   0  0  0  0  0  0  0  0  0  0  0  0
   74.7008   37.0779   39.5046 H   0  0  0  0  0  0  0  0  0  0  0  0
   74.8539   38.1460   38.0984 H   0  0  0  0  0  0  0  0  0  0  0  0
   76.7610   38.4730   39.6931 H   0  0  0  0  0  0  0  0  0  0  0  0
   75.6131   38.7743   40.9921 H   0  0  0  0  0  0  0  0  0  0  0  0
  1 20  1  0  0  0  0
  1  2  1  0  0  0  0
  1 11  2  0  0  0  0
  2  3  1  0  0  0  0
  2  8  2  0  0  0  0
  3  4  2  0  0  0  0
  3  5  1  0  0  0  0
  5  6  1  0  0  0  0
 12  5  1  0  0  0  0
  6  7  2  0  0  0  0
  6  8  1  0  0  0  0
  8  9  1  0  0  0  0
  9 21  1  0  0  0  0
  9 10  2  0  0  0  0
 10 22  1  0  0  0  0
 10 11  1  0  0  0  0
 11 23  1  0  0  0  0
 12 24  1  0  0  0  0
 12 13  1  0  0  0  0
 12 19  1  0  0  0  0
 13 14  2  0  0  0  0
 13 15  1  0  0  0  0
 15 25  1  0  0  0  0
 15 16  1  0  0  0  0
 16 17  2  0  0  0  0
 16 18  1  0  0  0  0
 18 26  1  0  0  0  0
 18 27  1  0  0  0  0
 18 19  1  0  0  0  0
 19 28  1  0  0  0  0
 19 29  1  0  0  0  0
M  ZZC   1 c1
M  ZZC   2 c2
M  ZZC   3 c3
M  ZZC   4 o1
M  ZZC   5 n1
M  ZZC   6 c4
M  ZZC   7 o2
M  ZZC   8 c5
M  ZZC   9 c6
M  ZZC  10 c7
M  ZZC  11 c8
M  ZZC  12 c9
M  ZZC  13 c10
M  ZZC  14 o3
M  ZZC  15 n2
M  ZZC  16 c11
M  ZZC  17 o4
M  ZZC  18 c12
M  ZZC  19 c13
M  ZZC  20 h11
M  ZZC  21 h61
M  ZZC  22 h71
M  ZZC  23 h81
M  ZZC  24 h91
M  ZZC  25 h21
M  ZZC  26 h121
M  ZZC  27 h122
M  ZZC  28 h131
M  ZZC  29 h132
M  ZZM   1 37
M  ZZI   1 125
M  ZZM   2 37
M  ZZI   2 124
M  ZZM   3 3
M  ZZI   3 121
M  ZZM   4 7
M  ZZI   4 81
M  ZZM   5 10
M  ZZI   5 192
M  ZZM   6 3
M  ZZI   6 121
M  ZZM   7 7
M  ZZI   7 81
M  ZZM   8 37
M  ZZI   8 124
M  ZZM   9 37
M  ZZI   9 125
M  ZZM  10 37
M  ZZI  10 125
M  ZZM  11 37
M  ZZI  11 125
M  ZZM  12 1
M  ZZI  12 113
M  ZZM  13 3
M  ZZI  13 121
M  ZZM  14 7
M  ZZI  14 81
M  ZZM  15 10
M  ZZI  15 191
M  ZZM  16 3
M  ZZI  16 121
M  ZZM  17 7
M  ZZI  17 81
M  ZZM  18 1
M  ZZI  18 112
M  ZZM  19 1
M  ZZI  19 112
M  ZZM  20 5
M  ZZI  20 1
M  ZZM  21 5
M  ZZI  21 1
M  ZZM  22 5
M  ZZI  22 1
M  ZZM  23 5
M  ZZI  23 1
M  ZZM  24 5
M  ZZI  24 1
M  ZZM  25 28
M  ZZI  25 11
M  ZZM  26 5
M  ZZI  26 1
M  ZZM  27 5
M  ZZI  27 1
M  ZZM  28 5
M  ZZI  28 1
M  ZZM  29 5
M  ZZI  29 1
M  END
> <IX>
1

> <NAME>
Cereblon_3LQ5_8.pdb

> <Score>
-19.294707

> <Natom>
29

> <Nflex>
1

> <Hbond>
-3.367448

> <Hphob>
-3.473497

> <VwInt>
-22.693045

> <Dsolv>
12.048825

> <SolEl>
5.648133

> <Eintl>
1.468064

> <RecConf>
ND

> <projPath>
Cereblon_maps/

> <NAME_>
Cereblon_3LQ5_8.pdb

$$$$
