Cereblon_6YBL_5.pdb
  MOLSOFT 04032206303D

 29 31  0  0  1  0  0  0  0  0999 V2000
   78.1360   43.0076   40.4360 C   0  0  0  0  0  0  0  0  0  0  0  0
   77.2211   42.0287   40.0889 C   0  0  0  0  0  0  0  0  0  0  0  0
   76.3662   41.9203   38.9092 C   0  0  0  0  0  0  0  0  0  0  0  0
   76.4341   42.6575   37.9357 O   0  0  0  0  0  0  0  0  0  0  0  0
   75.5162   40.8578   39.1424 N   0  0  0  0  0  0  0  0  0  0  0  0
   75.8966   40.1713   40.2768 C   0  0  0  0  0  0  0  0  0  0  0  0
   75.4732   39.1193   40.7316 O   0  0  0  0  0  0  0  0  0  0  0  0
   76.9454   40.9721   40.9053 C   0  0  0  0  0  0  0  0  0  0  0  0
   77.5487   40.8186   42.1404 C   0  0  0  0  0  0  0  0  0  0  0  0
   78.4616   41.7964   42.5163 C   0  0  0  0  0  0  0  0  0  0  0  0
   78.7607   42.8674   41.6712 C   0  0  0  0  0  0  0  0  0  0  0  0
   74.2512   40.6919   38.4138 C   0  0  2  0  0  0  0  0  0  0  0  0
   73.2251   41.4796   39.2075 C   0  0  0  0  0  0  0  0  0  0  0  0
   73.5492   42.3369   40.0133 O   0  0  0  0  0  0  0  0  0  0  0  0
   71.9075   41.2172   38.9223 N   0  0  0  0  0  0  0  0  0  0  0  0
   71.3980   40.2263   38.1180 C   0  0  0  0  0  0  0  0  0  0  0  0
   70.1960   40.1196   37.9249 O   0  0  0  0  0  0  0  0  0  0  0  0
   72.4183   39.3200   37.4595 C   0  0  0  0  0  0  0  0  0  0  0  0
   73.7231   39.2705   38.2453 C   0  0  0  0  0  0  0  0  0  0  0  0
   78.3461   43.8512   39.7859 H   0  0  0  0  0  0  0  0  0  0  0  0
   77.3047   39.9903   42.7987 H   0  0  0  0  0  0  0  0  0  0  0  0
   78.9488   41.7265   43.4845 H   0  0  0  0  0  0  0  0  0  0  0  0
   79.4777   43.6167   41.9925 H   0  0  0  0  0  0  0  0  0  0  0  0
   74.3432   41.1932   37.4430 H   0  0  0  0  0  0  0  0  0  0  0  0
   71.2342   41.8256   39.3712 H   0  0  0  0  0  0  0  0  0  0  0  0
   71.9924   38.3142   37.3873 H   0  0  0  0  0  0  0  0  0  0  0  0
   72.5926   39.6873   36.4423 H   0  0  0  0  0  0  0  0  0  0  0  0
   74.4514   38.6394   37.7284 H   0  0  0  0  0  0  0  0  0  0  0  0
   73.5316   38.8055   39.2183 H   0  0  0  0  0  0  0  0  0  0  0  0
  1 20  1  0  0  0  0
  1  2  1  0  0  0  0
  1 11  2  0  0  0  0
  2  3  1  0  0  0  0
  2  8  2  0  0  0  0
  3  4  2  0  0  0  0
  3  5  1  0  0  0  0
  5  6  1  0  0  0  0
 12  5  1  0  0  0  0
  6  7  2  0  0  0  0
  6  8  1  0  0  0  0
  8  9  1  0  0  0  0
  9 21  1  0  0  0  0
  9 10  2  0  0  0  0
 10 22  1  0  0  0  0
 10 11  1  0  0  0  0
 11 23  1  0  0  0  0
 12 24  1  0  0  0  0
 12 13  1  0  0  0  0
 12 19  1  0  0  0  0
 13 14  2  0  0  0  0
 13 15  1  0  0  0  0
 15 25  1  0  0  0  0
 15 16  1  0  0  0  0
 16 17  2  0  0  0  0
 16 18  1  0  0  0  0
 18 26  1  0  0  0  0
 18 27  1  0  0  0  0
 18 19  1  0  0  0  0
 19 28  1  0  0  0  0
 19 29  1  0  0  0  0
M  ZZC   1 c1
M  ZZC   2 c2
M  ZZC   3 c3
M  ZZC   4 o1
M  ZZC   5 n1
M  ZZC   6 c4
M  ZZC   7 o2
M  ZZC   8 c5
M  ZZC   9 c6
M  ZZC  10 c7
M  ZZC  11 c8
M  ZZC  12 c9
M  ZZC  13 c10
M  ZZC  14 o3
M  ZZC  15 n2
M  ZZC  16 c11
M  ZZC  17 o4
M  ZZC  18 c12
M  ZZC  19 c13
M  ZZC  20 h11
M  ZZC  21 h61
M  ZZC  22 h71
M  ZZC  23 h81
M  ZZC  24 h91
M  ZZC  25 h21
M  ZZC  26 h121
M  ZZC  27 h122
M  ZZC  28 h131
M  ZZC  29 h132
M  ZZM   1 37
M  ZZI   1 125
M  ZZM   2 37
M  ZZI   2 124
M  ZZM   3 3
M  ZZI   3 121
M  ZZM   4 7
M  ZZI   4 81
M  ZZM   5 10
M  ZZI   5 192
M  ZZM   6 3
M  ZZI   6 121
M  ZZM   7 7
M  ZZI   7 81
M  ZZM   8 37
M  ZZI   8 124
M  ZZM   9 37
M  ZZI   9 125
M  ZZM  10 37
M  ZZI  10 125
M  ZZM  11 37
M  ZZI  11 125
M  ZZM  12 1
M  ZZI  12 113
M  ZZM  13 3
M  ZZI  13 121
M  ZZM  14 7
M  ZZI  14 81
M  ZZM  15 10
M  ZZI  15 191
M  ZZM  16 3
M  ZZI  16 121
M  ZZM  17 7
M  ZZI  17 81
M  ZZM  18 1
M  ZZI  18 112
M  ZZM  19 1
M  ZZI  19 112
M  ZZM  20 5
M  ZZI  20 1
M  ZZM  21 5
M  ZZI  21 1
M  ZZM  22 5
M  ZZI  22 1
M  ZZM  23 5
M  ZZI  23 1
M  ZZM  24 5
M  ZZI  24 1
M  ZZM  25 28
M  ZZI  25 11
M  ZZM  26 5
M  ZZI  26 1
M  ZZM  27 5
M  ZZI  27 1
M  ZZM  28 5
M  ZZI  28 1
M  ZZM  29 5
M  ZZI  29 1
M  END
> <IX>
1

> <NAME>
Cereblon_6YBL_5.pdb

> <Score>
-16.64719

> <Natom>
29

> <Nflex>
1

> <Hbond>
-4.300612

> <Hphob>
-3.458115

> <VwInt>
-21.316436

> <Dsolv>
15.070377

> <SolEl>
4.202384

> <Eintl>
5.317292

> <RecConf>
ND

> <projPath>
Cereblon_maps/

> <NAME_>
Cereblon_6YBL_5.pdb

$$$$
