Cereblon_1HWK_11.pdb
  MOLSOFT 04032206193D

 31 33  0  0  1  0  0  0  0  0999 V2000
   78.0701   40.6269   42.6644 N   0  0  0  0  0  0  0  0  0  0  0  0
   78.1271   41.7188   41.7830 C   0  0  0  0  0  0  0  0  0  0  0  0
   77.3038   41.8172   40.6700 C   0  0  0  0  0  0  0  0  0  0  0  0
   76.2351   40.9311   40.2142 C   0  0  0  0  0  0  0  0  0  0  0  0
   75.9815   39.8441   40.7141 O   0  0  0  0  0  0  0  0  0  0  0  0
   75.6186   41.5649   39.1511 N   0  0  0  0  0  0  0  0  0  0  0  0
   76.3482   42.6741   38.7733 C   0  0  0  0  0  0  0  0  0  0  0  0
   76.2504   43.3747   37.7772 O   0  0  0  0  0  0  0  0  0  0  0  0
   77.3823   42.8546   39.7920 C   0  0  0  0  0  0  0  0  0  0  0  0
   78.3241   43.8582   39.9259 C   0  0  0  0  0  0  0  0  0  0  0  0
   79.1882   43.7689   41.0095 C   0  0  0  0  0  0  0  0  0  0  0  0
   79.0876   42.7183   41.9230 C   0  0  0  0  0  0  0  0  0  0  0  0
   74.3723   41.0549   38.5509 C   0  0  1  0  0  0  0  0  0  0  0  0
   73.2317   41.3265   39.5227 C   0  0  0  0  0  0  0  0  0  0  0  0
   73.4055   41.6105   40.6953 O   0  0  0  0  0  0  0  0  0  0  0  0
   71.9635   41.1799   39.0207 N   0  0  0  0  0  0  0  0  0  0  0  0
   71.5890   40.9412   37.7241 C   0  0  0  0  0  0  0  0  0  0  0  0
   70.4280   40.6953   37.4350 O   0  0  0  0  0  0  0  0  0  0  0  0
   72.7080   40.9448   36.7033 C   0  0  0  0  0  0  0  0  0  0  0  0
   73.9435   41.6714   37.2196 C   0  0  0  0  0  0  0  0  0  0  0  0
   78.6423   40.6166   43.5075 H   0  0  0  0  0  0  0  0  0  0  0  0
   77.2708   39.9940   42.6062 H   0  0  0  0  0  0  0  0  0  0  0  0
   78.3854   44.6780   39.2187 H   0  0  0  0  0  0  0  0  0  0  0  0
   79.9464   44.5323   41.1535 H   0  0  0  0  0  0  0  0  0  0  0  0
   79.7759   42.6842   42.7617 H   0  0  0  0  0  0  0  0  0  0  0  0
   74.4699   39.9659   38.4678 H   0  0  0  0  0  0  0  0  0  0  0  0
   71.2102   41.2757   39.6893 H   0  0  0  0  0  0  0  0  0  0  0  0
   72.9462   39.9050   36.4553 H   0  0  0  0  0  0  0  0  0  0  0  0
   72.3468   41.4355   35.7937 H   0  0  0  0  0  0  0  0  0  0  0  0
   74.7395   41.6178   36.4758 H   0  0  0  0  0  0  0  0  0  0  0  0
   73.7109   42.7354   37.3470 H   0  0  0  0  0  0  0  0  0  0  0  0
  1  2  1  0  0  0  0
  1 21  1  0  0  0  0
  1 22  1  0  0  0  0
  2  3  1  0  0  0  0
  2 12  2  0  0  0  0
  3  9  2  0  0  0  0
  3  4  1  0  0  0  0
  4  5  2  0  0  0  0
  4  6  1  0  0  0  0
  6  7  1  0  0  0  0
 13  6  1  0  0  0  0
  7  8  2  0  0  0  0
  7  9  1  0  0  0  0
  9 10  1  0  0  0  0
 10 23  1  0  0  0  0
 10 11  2  0  0  0  0
 11 12  1  0  0  0  0
 11 24  1  0  0  0  0
 12 25  1  0  0  0  0
 13 26  1  0  0  0  0
 13 14  1  0  0  0  0
 13 20  1  0  0  0  0
 14 15  2  0  0  0  0
 14 16  1  0  0  0  0
 16 27  1  0  0  0  0
 16 17  1  0  0  0  0
 17 18  2  0  0  0  0
 17 19  1  0  0  0  0
 19 28  1  0  0  0  0
 19 29  1  0  0  0  0
 19 20  1  0  0  0  0
 20 30  1  0  0  0  0
 20 31  1  0  0  0  0
M  ZZC   1 n1
M  ZZC   2 c1
M  ZZC   3 c2
M  ZZC   4 c3
M  ZZC   5 o1
M  ZZC   6 n2
M  ZZC   7 c4
M  ZZC   8 o2
M  ZZC   9 c5
M  ZZC  10 c6
M  ZZC  11 c7
M  ZZC  12 c8
M  ZZC  13 c9
M  ZZC  14 c10
M  ZZC  15 o3
M  ZZC  16 n3
M  ZZC  17 c11
M  ZZC  18 o4
M  ZZC  19 c12
M  ZZC  20 c13
M  ZZC  21 h11
M  ZZC  22 h12
M  ZZC  23 h61
M  ZZC  24 h71
M  ZZC  25 h81
M  ZZC  26 h91
M  ZZC  27 h31
M  ZZC  28 h121
M  ZZC  29 h122
M  ZZC  30 h131
M  ZZC  31 h132
M  ZZM   1 40
M  ZZI   1 224
M  ZZM   2 37
M  ZZI   2 124
M  ZZM   3 37
M  ZZI   3 124
M  ZZM   4 3
M  ZZI   4 121
M  ZZM   5 7
M  ZZI   5 81
M  ZZM   6 10
M  ZZI   6 192
M  ZZM   7 3
M  ZZI   7 121
M  ZZM   8 7
M  ZZI   8 81
M  ZZM   9 37
M  ZZI   9 124
M  ZZM  10 37
M  ZZI  10 125
M  ZZM  11 37
M  ZZI  11 125
M  ZZM  12 37
M  ZZI  12 125
M  ZZM  13 1
M  ZZI  13 113
M  ZZM  14 3
M  ZZI  14 121
M  ZZM  15 7
M  ZZI  15 81
M  ZZM  16 10
M  ZZI  16 191
M  ZZM  17 3
M  ZZI  17 121
M  ZZM  18 7
M  ZZI  18 81
M  ZZM  19 1
M  ZZI  19 112
M  ZZM  20 1
M  ZZI  20 112
M  ZZM  21 28
M  ZZI  21 11
M  ZZM  22 28
M  ZZI  22 11
M  ZZM  23 5
M  ZZI  23 1
M  ZZM  24 5
M  ZZI  24 1
M  ZZM  25 5
M  ZZI  25 1
M  ZZM  26 5
M  ZZI  26 1
M  ZZM  27 28
M  ZZI  27 11
M  ZZM  28 5
M  ZZI  28 1
M  ZZM  29 5
M  ZZI  29 1
M  ZZM  30 5
M  ZZI  30 1
M  ZZM  31 5
M  ZZI  31 1
M  END
> <IX>
1

> <NAME>
Cereblon_1HWK_11.pdb

> <Score>
-14.126519

> <Natom>
31

> <Nflex>
1

> <Hbond>
-2.710904

> <Hphob>
-3.766196

> <VwInt>
-26.964795

> <Dsolv>
17.16698

> <SolEl>
7.889296

> <Eintl>
5.896739

> <RecConf>
ND

> <projPath>
Cereblon_maps/

> <NAME_>
Cereblon_1HWK_11.pdb

$$$$
