Cereblon_3HLL_15.pdb
  MOLSOFT 04032206213D

 31 33  0  0  1  0  0  0  0  0999 V2000
   78.8200   41.6854   43.8110 N   0  0  0  0  0  0  0  0  0  0  0  0
   78.9042   42.4343   42.6272 C   0  0  0  0  0  0  0  0  0  0  0  0
   78.0999   42.1639   41.5332 C   0  0  0  0  0  0  0  0  0  0  0  0
   77.1770   41.0542   41.3303 C   0  0  0  0  0  0  0  0  0  0  0  0
   76.9908   40.1775   42.1610 O   0  0  0  0  0  0  0  0  0  0  0  0
   76.6458   41.2132   40.0658 N   0  0  0  0  0  0  0  0  0  0  0  0
   77.1663   42.3326   39.4491 C   0  0  0  0  0  0  0  0  0  0  0  0
   76.9521   42.7532   38.3196 O   0  0  0  0  0  0  0  0  0  0  0  0
   78.0973   42.9305   40.4073 C   0  0  0  0  0  0  0  0  0  0  0  0
   78.9068   44.0410   40.2846 C   0  0  0  0  0  0  0  0  0  0  0  0
   79.7239   44.3431   41.3677 C   0  0  0  0  0  0  0  0  0  0  0  0
   79.7120   43.5628   42.5254 C   0  0  0  0  0  0  0  0  0  0  0  0
   75.6261   40.3748   39.4319 C   0  0  2  0  0  0  0  0  0  0  0  0
   74.2544   40.9520   39.7371 C   0  0  0  0  0  0  0  0  0  0  0  0
   74.0828   42.1323   39.9930 O   0  0  0  0  0  0  0  0  0  0  0  0
   73.1947   40.0852   39.6251 N   0  0  0  0  0  0  0  0  0  0  0  0
   73.2208   38.7472   39.3137 C   0  0  0  0  0  0  0  0  0  0  0  0
   72.1966   38.0930   39.2055 O   0  0  0  0  0  0  0  0  0  0  0  0
   74.5844   38.1495   39.0609 C   0  0  0  0  0  0  0  0  0  0  0  0
   75.6615   38.9008   39.8233 C   0  0  0  0  0  0  0  0  0  0  0  0
   79.5373   41.7884   44.5258 H   0  0  0  0  0  0  0  0  0  0  0  0
   78.2945   40.8098   43.7915 H   0  0  0  0  0  0  0  0  0  0  0  0
   78.8981   44.6472   39.3864 H   0  0  0  0  0  0  0  0  0  0  0  0
   80.3730   45.2104   41.3203 H   0  0  0  0  0  0  0  0  0  0  0  0
   80.3462   43.8452   43.3603 H   0  0  0  0  0  0  0  0  0  0  0  0
   75.7591   40.4729   38.3532 H   0  0  0  0  0  0  0  0  0  0  0  0
   72.2790   40.4862   39.7857 H   0  0  0  0  0  0  0  0  0  0  0  0
   74.5704   37.1024   39.3797 H   0  0  0  0  0  0  0  0  0  0  0  0
   74.7720   38.1730   37.9829 H   0  0  0  0  0  0  0  0  0  0  0  0
   75.4774   38.7743   40.8941 H   0  0  0  0  0  0  0  0  0  0  0  0
   76.6466   38.4705   39.6162 H   0  0  0  0  0  0  0  0  0  0  0  0
  1  2  1  0  0  0  0
  1 21  1  0  0  0  0
  1 22  1  0  0  0  0
  2  3  1  0  0  0  0
  2 12  2  0  0  0  0
  3  9  2  0  0  0  0
  3  4  1  0  0  0  0
  4  5  2  0  0  0  0
  4  6  1  0  0  0  0
  6  7  1  0  0  0  0
 13  6  1  0  0  0  0
  7  8  2  0  0  0  0
  7  9  1  0  0  0  0
  9 10  1  0  0  0  0
 10 23  1  0  0  0  0
 10 11  2  0  0  0  0
 11 12  1  0  0  0  0
 11 24  1  0  0  0  0
 12 25  1  0  0  0  0
 13 26  1  0  0  0  0
 13 14  1  0  0  0  0
 13 20  1  0  0  0  0
 14 15  2  0  0  0  0
 14 16  1  0  0  0  0
 16 27  1  0  0  0  0
 16 17  1  0  0  0  0
 17 18  2  0  0  0  0
 17 19  1  0  0  0  0
 19 28  1  0  0  0  0
 19 29  1  0  0  0  0
 19 20  1  0  0  0  0
 20 30  1  0  0  0  0
 20 31  1  0  0  0  0
M  ZZC   1 n1
M  ZZC   2 c1
M  ZZC   3 c2
M  ZZC   4 c3
M  ZZC   5 o1
M  ZZC   6 n2
M  ZZC   7 c4
M  ZZC   8 o2
M  ZZC   9 c5
M  ZZC  10 c6
M  ZZC  11 c7
M  ZZC  12 c8
M  ZZC  13 c9
M  ZZC  14 c10
M  ZZC  15 o3
M  ZZC  16 n3
M  ZZC  17 c11
M  ZZC  18 o4
M  ZZC  19 c12
M  ZZC  20 c13
M  ZZC  21 h11
M  ZZC  22 h12
M  ZZC  23 h61
M  ZZC  24 h71
M  ZZC  25 h81
M  ZZC  26 h91
M  ZZC  27 h31
M  ZZC  28 h121
M  ZZC  29 h122
M  ZZC  30 h131
M  ZZC  31 h132
M  ZZM   1 40
M  ZZI   1 224
M  ZZM   2 37
M  ZZI   2 124
M  ZZM   3 37
M  ZZI   3 124
M  ZZM   4 3
M  ZZI   4 121
M  ZZM   5 7
M  ZZI   5 81
M  ZZM   6 10
M  ZZI   6 192
M  ZZM   7 3
M  ZZI   7 121
M  ZZM   8 7
M  ZZI   8 81
M  ZZM   9 37
M  ZZI   9 124
M  ZZM  10 37
M  ZZI  10 125
M  ZZM  11 37
M  ZZI  11 125
M  ZZM  12 37
M  ZZI  12 125
M  ZZM  13 1
M  ZZI  13 113
M  ZZM  14 3
M  ZZI  14 121
M  ZZM  15 7
M  ZZI  15 81
M  ZZM  16 10
M  ZZI  16 191
M  ZZM  17 3
M  ZZI  17 121
M  ZZM  18 7
M  ZZI  18 81
M  ZZM  19 1
M  ZZI  19 112
M  ZZM  20 1
M  ZZI  20 112
M  ZZM  21 28
M  ZZI  21 11
M  ZZM  22 28
M  ZZI  22 11
M  ZZM  23 5
M  ZZI  23 1
M  ZZM  24 5
M  ZZI  24 1
M  ZZM  25 5
M  ZZI  25 1
M  ZZM  26 5
M  ZZI  26 1
M  ZZM  27 28
M  ZZI  27 11
M  ZZM  28 5
M  ZZI  28 1
M  ZZM  29 5
M  ZZI  29 1
M  ZZM  30 5
M  ZZI  30 1
M  ZZM  31 5
M  ZZI  31 1
M  END
> <IX>
1

> <NAME>
Cereblon_3HLL_15.pdb

> <Score>
-18.62984

> <Natom>
31

> <Nflex>
1

> <Hbond>
-3.681197

> <Hphob>
-3.626173

> <VwInt>
-24.285924

> <Dsolv>
15.069095

> <SolEl>
6.849538

> <Eintl>
1.627553

> <RecConf>
ND

> <projPath>
Cereblon_maps/

> <NAME_>
Cereblon_3HLL_15.pdb

$$$$
