Cereblon_4MXO_5.pdb
  MOLSOFT 04032206233D

 31 33  0  0  1  0  0  0  0  0999 V2000
   78.8143   41.6788   43.8197 N   0  0  0  0  0  0  0  0  0  0  0  0
   78.9077   42.4234   42.6334 C   0  0  0  0  0  0  0  0  0  0  0  0
   78.1021   42.1578   41.5388 C   0  0  0  0  0  0  0  0  0  0  0  0
   77.1807   41.0472   41.3315 C   0  0  0  0  0  0  0  0  0  0  0  0
   76.9990   40.1649   42.1573 O   0  0  0  0  0  0  0  0  0  0  0  0
   76.6473   41.2109   40.0686 N   0  0  0  0  0  0  0  0  0  0  0  0
   77.1682   42.3323   39.4552 C   0  0  0  0  0  0  0  0  0  0  0  0
   76.9551   42.7556   38.3265 O   0  0  0  0  0  0  0  0  0  0  0  0
   78.0991   42.9277   40.4153 C   0  0  0  0  0  0  0  0  0  0  0  0
   78.9099   44.0376   40.2952 C   0  0  0  0  0  0  0  0  0  0  0  0
   79.7248   44.3380   41.3803 C   0  0  0  0  0  0  0  0  0  0  0  0
   79.7112   43.5555   42.5363 C   0  0  0  0  0  0  0  0  0  0  0  0
   75.6269   40.3751   39.4318 C   0  0  2  0  0  0  0  0  0  0  0  0
   74.2563   40.9543   39.7369 C   0  0  0  0  0  0  0  0  0  0  0  0
   74.0856   42.1343   39.9941 O   0  0  0  0  0  0  0  0  0  0  0  0
   73.1955   40.0894   39.6229 N   0  0  0  0  0  0  0  0  0  0  0  0
   73.2193   38.7519   39.3089 C   0  0  0  0  0  0  0  0  0  0  0  0
   72.1939   38.1001   39.1978 O   0  0  0  0  0  0  0  0  0  0  0  0
   74.5817   38.1517   39.0574 C   0  0  0  0  0  0  0  0  0  0  0  0
   75.6596   38.9002   39.8210 C   0  0  0  0  0  0  0  0  0  0  0  0
   79.5550   41.7627   44.5123 H   0  0  0  0  0  0  0  0  0  0  0  0
   78.3260   40.7830   43.7769 H   0  0  0  0  0  0  0  0  0  0  0  0
   78.9026   44.6459   39.3985 H   0  0  0  0  0  0  0  0  0  0  0  0
   80.3725   45.2063   41.3359 H   0  0  0  0  0  0  0  0  0  0  0  0
   80.3419   43.8385   43.3735 H   0  0  0  0  0  0  0  0  0  0  0  0
   75.7621   40.4752   38.3538 H   0  0  0  0  0  0  0  0  0  0  0  0
   72.2800   40.4910   39.7831 H   0  0  0  0  0  0  0  0  0  0  0  0
   74.5651   37.1040   39.3747 H   0  0  0  0  0  0  0  0  0  0  0  0
   74.7700   38.1762   37.9798 H   0  0  0  0  0  0  0  0  0  0  0  0
   75.4739   38.7723   40.8916 H   0  0  0  0  0  0  0  0  0  0  0  0
   76.6442   38.4686   39.6134 H   0  0  0  0  0  0  0  0  0  0  0  0
  1  2  1  0  0  0  0
  1 21  1  0  0  0  0
  1 22  1  0  0  0  0
  2  3  1  0  0  0  0
  2 12  2  0  0  0  0
  3  9  2  0  0  0  0
  3  4  1  0  0  0  0
  4  5  2  0  0  0  0
  4  6  1  0  0  0  0
  6  7  1  0  0  0  0
 13  6  1  0  0  0  0
  7  8  2  0  0  0  0
  7  9  1  0  0  0  0
  9 10  1  0  0  0  0
 10 23  1  0  0  0  0
 10 11  2  0  0  0  0
 11 12  1  0  0  0  0
 11 24  1  0  0  0  0
 12 25  1  0  0  0  0
 13 26  1  0  0  0  0
 13 14  1  0  0  0  0
 13 20  1  0  0  0  0
 14 15  2  0  0  0  0
 14 16  1  0  0  0  0
 16 27  1  0  0  0  0
 16 17  1  0  0  0  0
 17 18  2  0  0  0  0
 17 19  1  0  0  0  0
 19 28  1  0  0  0  0
 19 29  1  0  0  0  0
 19 20  1  0  0  0  0
 20 30  1  0  0  0  0
 20 31  1  0  0  0  0
M  ZZC   1 n1
M  ZZC   2 c1
M  ZZC   3 c2
M  ZZC   4 c3
M  ZZC   5 o1
M  ZZC   6 n2
M  ZZC   7 c4
M  ZZC   8 o2
M  ZZC   9 c5
M  ZZC  10 c6
M  ZZC  11 c7
M  ZZC  12 c8
M  ZZC  13 c9
M  ZZC  14 c10
M  ZZC  15 o3
M  ZZC  16 n3
M  ZZC  17 c11
M  ZZC  18 o4
M  ZZC  19 c12
M  ZZC  20 c13
M  ZZC  21 h11
M  ZZC  22 h12
M  ZZC  23 h61
M  ZZC  24 h71
M  ZZC  25 h81
M  ZZC  26 h91
M  ZZC  27 h31
M  ZZC  28 h121
M  ZZC  29 h122
M  ZZC  30 h131
M  ZZC  31 h132
M  ZZM   1 40
M  ZZI   1 224
M  ZZM   2 37
M  ZZI   2 124
M  ZZM   3 37
M  ZZI   3 124
M  ZZM   4 3
M  ZZI   4 121
M  ZZM   5 7
M  ZZI   5 81
M  ZZM   6 10
M  ZZI   6 192
M  ZZM   7 3
M  ZZI   7 121
M  ZZM   8 7
M  ZZI   8 81
M  ZZM   9 37
M  ZZI   9 124
M  ZZM  10 37
M  ZZI  10 125
M  ZZM  11 37
M  ZZI  11 125
M  ZZM  12 37
M  ZZI  12 125
M  ZZM  13 1
M  ZZI  13 113
M  ZZM  14 3
M  ZZI  14 121
M  ZZM  15 7
M  ZZI  15 81
M  ZZM  16 10
M  ZZI  16 191
M  ZZM  17 3
M  ZZI  17 121
M  ZZM  18 7
M  ZZI  18 81
M  ZZM  19 1
M  ZZI  19 112
M  ZZM  20 1
M  ZZI  20 112
M  ZZM  21 28
M  ZZI  21 11
M  ZZM  22 28
M  ZZI  22 11
M  ZZM  23 5
M  ZZI  23 1
M  ZZM  24 5
M  ZZI  24 1
M  ZZM  25 5
M  ZZI  25 1
M  ZZM  26 5
M  ZZI  26 1
M  ZZM  27 28
M  ZZI  27 11
M  ZZM  28 5
M  ZZI  28 1
M  ZZM  29 5
M  ZZI  29 1
M  ZZM  30 5
M  ZZI  30 1
M  ZZM  31 5
M  ZZI  31 1
M  END
> <IX>
1

> <NAME>
Cereblon_4MXO_5.pdb

> <Score>
-18.574635

> <Natom>
31

> <Nflex>
1

> <Hbond>
-3.710301

> <Hphob>
-3.546876

> <VwInt>
-24.189024

> <Dsolv>
15.183166

> <SolEl>
6.638436

> <Eintl>
1.681858

> <RecConf>
ND

> <projPath>
Cereblon_maps/

> <NAME_>
Cereblon_4MXO_5.pdb

$$$$
