Cereblon_4CI1_1.pdb
  MOLSOFT 04032206233D

 29 31  0  0  1  0  0  0  0  0999 V2000
   78.9974   42.4825   42.6725 C   0  0  0  0  0  0  0  0  0  0  0  0
   78.1798   42.1901   41.5954 C   0  0  0  0  0  0  0  0  0  0  0  0
   77.2640   41.0716   41.4069 C   0  0  0  0  0  0  0  0  0  0  0  0
   77.0843   40.2086   42.2523 O   0  0  0  0  0  0  0  0  0  0  0  0
   76.7232   41.2169   40.1426 N   0  0  0  0  0  0  0  0  0  0  0  0
   77.2203   42.3443   39.5210 C   0  0  0  0  0  0  0  0  0  0  0  0
   76.9882   42.7634   38.3944 O   0  0  0  0  0  0  0  0  0  0  0  0
   78.1534   42.9550   40.4683 C   0  0  0  0  0  0  0  0  0  0  0  0
   78.9522   44.0718   40.3292 C   0  0  0  0  0  0  0  0  0  0  0  0
   79.7947   44.3788   41.3921 C   0  0  0  0  0  0  0  0  0  0  0  0
   79.8171   43.5979   42.5484 C   0  0  0  0  0  0  0  0  0  0  0  0
   75.7141   40.3638   39.5092 C   0  0  2  0  0  0  0  0  0  0  0  0
   74.3344   40.9341   39.7960 C   0  0  0  0  0  0  0  0  0  0  0  0
   74.1487   42.1201   40.0125 O   0  0  0  0  0  0  0  0  0  0  0  0
   73.2827   40.0537   39.7178 N   0  0  0  0  0  0  0  0  0  0  0  0
   73.3198   38.7083   39.4443 C   0  0  0  0  0  0  0  0  0  0  0  0
   72.3039   38.0356   39.3829 O   0  0  0  0  0  0  0  0  0  0  0  0
   74.6847   38.1259   39.1708 C   0  0  0  0  0  0  0  0  0  0  0  0
   75.7656   38.8937   39.9105 C   0  0  0  0  0  0  0  0  0  0  0  0
   79.0033   41.8680   43.5685 H   0  0  0  0  0  0  0  0  0  0  0  0
   78.9231   44.6753   39.4298 H   0  0  0  0  0  0  0  0  0  0  0  0
   80.4448   45.2433   41.3235 H   0  0  0  0  0  0  0  0  0  0  0  0
   80.4843   43.8643   43.3634 H   0  0  0  0  0  0  0  0  0  0  0  0
   75.8539   40.4518   38.4300 H   0  0  0  0  0  0  0  0  0  0  0  0
   72.3644   40.4482   39.8797 H   0  0  0  0  0  0  0  0  0  0  0  0
   74.6880   37.0799   39.4937 H   0  0  0  0  0  0  0  0  0  0  0  0
   74.8485   38.1479   38.0891 H   0  0  0  0  0  0  0  0  0  0  0  0
   76.7512   38.4711   39.6897 H   0  0  0  0  0  0  0  0  0  0  0  0
   75.5995   38.7748   40.9847 H   0  0  0  0  0  0  0  0  0  0  0  0
  1 20  1  0  0  0  0
  1  2  1  0  0  0  0
  1 11  2  0  0  0  0
  2  3  1  0  0  0  0
  2  8  2  0  0  0  0
  3  4  2  0  0  0  0
  3  5  1  0  0  0  0
  5  6  1  0  0  0  0
 12  5  1  0  0  0  0
  6  7  2  0  0  0  0
  6  8  1  0  0  0  0
  8  9  1  0  0  0  0
  9 21  1  0  0  0  0
  9 10  2  0  0  0  0
 10 22  1  0  0  0  0
 10 11  1  0  0  0  0
 11 23  1  0  0  0  0
 12 24  1  0  0  0  0
 12 13  1  0  0  0  0
 12 19  1  0  0  0  0
 13 14  2  0  0  0  0
 13 15  1  0  0  0  0
 15 25  1  0  0  0  0
 15 16  1  0  0  0  0
 16 17  2  0  0  0  0
 16 18  1  0  0  0  0
 18 26  1  0  0  0  0
 18 27  1  0  0  0  0
 18 19  1  0  0  0  0
 19 28  1  0  0  0  0
 19 29  1  0  0  0  0
M  ZZC   1 c1
M  ZZC   2 c2
M  ZZC   3 c3
M  ZZC   4 o1
M  ZZC   5 n1
M  ZZC   6 c4
M  ZZC   7 o2
M  ZZC   8 c5
M  ZZC   9 c6
M  ZZC  10 c7
M  ZZC  11 c8
M  ZZC  12 c9
M  ZZC  13 c10
M  ZZC  14 o3
M  ZZC  15 n2
M  ZZC  16 c11
M  ZZC  17 o4
M  ZZC  18 c12
M  ZZC  19 c13
M  ZZC  20 h11
M  ZZC  21 h61
M  ZZC  22 h71
M  ZZC  23 h81
M  ZZC  24 h91
M  ZZC  25 h21
M  ZZC  26 h121
M  ZZC  27 h122
M  ZZC  28 h131
M  ZZC  29 h132
M  ZZM   1 37
M  ZZI   1 125
M  ZZM   2 37
M  ZZI   2 124
M  ZZM   3 3
M  ZZI   3 121
M  ZZM   4 7
M  ZZI   4 81
M  ZZM   5 10
M  ZZI   5 192
M  ZZM   6 3
M  ZZI   6 121
M  ZZM   7 7
M  ZZI   7 81
M  ZZM   8 37
M  ZZI   8 124
M  ZZM   9 37
M  ZZI   9 125
M  ZZM  10 37
M  ZZI  10 125
M  ZZM  11 37
M  ZZI  11 125
M  ZZM  12 1
M  ZZI  12 113
M  ZZM  13 3
M  ZZI  13 121
M  ZZM  14 7
M  ZZI  14 81
M  ZZM  15 10
M  ZZI  15 191
M  ZZM  16 3
M  ZZI  16 121
M  ZZM  17 7
M  ZZI  17 81
M  ZZM  18 1
M  ZZI  18 112
M  ZZM  19 1
M  ZZI  19 112
M  ZZM  20 5
M  ZZI  20 1
M  ZZM  21 5
M  ZZI  21 1
M  ZZM  22 5
M  ZZI  22 1
M  ZZM  23 5
M  ZZI  23 1
M  ZZM  24 5
M  ZZI  24 1
M  ZZM  25 28
M  ZZI  25 11
M  ZZM  26 5
M  ZZI  26 1
M  ZZM  27 5
M  ZZI  27 1
M  ZZM  28 5
M  ZZI  28 1
M  ZZM  29 5
M  ZZI  29 1
M  END
> <IX>
1

> <NAME>
Cereblon_4CI1_1.pdb

> <Score>
-19.305543

> <Natom>
29

> <Nflex>
1

> <Hbond>
-3.376182

> <Hphob>
-3.491434

> <VwInt>
-22.705424

> <Dsolv>
12.124184

> <SolEl>
5.580377

> <Eintl>
1.507826

> <RecConf>
ND

> <projPath>
Cereblon_maps/

> <NAME_>
Cereblon_4CI1_1.pdb

$$$$
