Cereblon_5L2I_7.pdb
  MOLSOFT 04032206253D

 31 33  0  0  1  0  0  0  0  0999 V2000
   78.8128   41.6771   43.8190 N   0  0  0  0  0  0  0  0  0  0  0  0
   78.9062   42.4220   42.6328 C   0  0  0  0  0  0  0  0  0  0  0  0
   78.1007   42.1564   41.5382 C   0  0  0  0  0  0  0  0  0  0  0  0
   77.1802   41.0455   41.3308 C   0  0  0  0  0  0  0  0  0  0  0  0
   77.0000   40.1622   42.1559 O   0  0  0  0  0  0  0  0  0  0  0  0
   76.6461   41.2097   40.0681 N   0  0  0  0  0  0  0  0  0  0  0  0
   77.1666   42.3310   39.4548 C   0  0  0  0  0  0  0  0  0  0  0  0
   76.9533   42.7542   38.3260 O   0  0  0  0  0  0  0  0  0  0  0  0
   78.0975   42.9264   40.4147 C   0  0  0  0  0  0  0  0  0  0  0  0
   78.9081   44.0365   40.2948 C   0  0  0  0  0  0  0  0  0  0  0  0
   79.7234   44.3369   41.3799 C   0  0  0  0  0  0  0  0  0  0  0  0
   79.7103   43.5538   42.5357 C   0  0  0  0  0  0  0  0  0  0  0  0
   75.6257   40.3741   39.4316 C   0  0  2  0  0  0  0  0  0  0  0  0
   74.2547   40.9546   39.7353 C   0  0  0  0  0  0  0  0  0  0  0  0
   74.0851   42.1348   39.9928 O   0  0  0  0  0  0  0  0  0  0  0  0
   73.1931   40.0908   39.6196 N   0  0  0  0  0  0  0  0  0  0  0  0
   73.2164   38.7528   39.3082 C   0  0  0  0  0  0  0  0  0  0  0  0
   72.1907   38.1013   39.1990 O   0  0  0  0  0  0  0  0  0  0  0  0
   74.5790   38.1519   39.0566 C   0  0  0  0  0  0  0  0  0  0  0  0
   75.6568   38.8998   39.8215 C   0  0  0  0  0  0  0  0  0  0  0  0
   79.5540   41.7597   44.5114 H   0  0  0  0  0  0  0  0  0  0  0  0
   78.3238   40.7817   43.7761 H   0  0  0  0  0  0  0  0  0  0  0  0
   78.9003   44.6448   39.3980 H   0  0  0  0  0  0  0  0  0  0  0  0
   80.3703   45.2056   41.3356 H   0  0  0  0  0  0  0  0  0  0  0  0
   80.3409   43.8365   43.3730 H   0  0  0  0  0  0  0  0  0  0  0  0
   75.7608   40.4734   38.3532 H   0  0  0  0  0  0  0  0  0  0  0  0
   72.2783   40.4940   39.7796 H   0  0  0  0  0  0  0  0  0  0  0  0
   74.5613   37.1042   39.3737 H   0  0  0  0  0  0  0  0  0  0  0  0
   74.7686   38.1769   37.9790 H   0  0  0  0  0  0  0  0  0  0  0  0
   75.4705   38.7732   40.8919 H   0  0  0  0  0  0  0  0  0  0  0  0
   76.6410   38.4673   39.6157 H   0  0  0  0  0  0  0  0  0  0  0  0
  1  2  1  0  0  0  0
  1 21  1  0  0  0  0
  1 22  1  0  0  0  0
  2  3  1  0  0  0  0
  2 12  2  0  0  0  0
  3  9  2  0  0  0  0
  3  4  1  0  0  0  0
  4  5  2  0  0  0  0
  4  6  1  0  0  0  0
  6  7  1  0  0  0  0
 13  6  1  0  0  0  0
  7  8  2  0  0  0  0
  7  9  1  0  0  0  0
  9 10  1  0  0  0  0
 10 23  1  0  0  0  0
 10 11  2  0  0  0  0
 11 12  1  0  0  0  0
 11 24  1  0  0  0  0
 12 25  1  0  0  0  0
 13 26  1  0  0  0  0
 13 14  1  0  0  0  0
 13 20  1  0  0  0  0
 14 15  2  0  0  0  0
 14 16  1  0  0  0  0
 16 27  1  0  0  0  0
 16 17  1  0  0  0  0
 17 18  2  0  0  0  0
 17 19  1  0  0  0  0
 19 28  1  0  0  0  0
 19 29  1  0  0  0  0
 19 20  1  0  0  0  0
 20 30  1  0  0  0  0
 20 31  1  0  0  0  0
M  ZZC   1 n1
M  ZZC   2 c1
M  ZZC   3 c2
M  ZZC   4 c3
M  ZZC   5 o1
M  ZZC   6 n2
M  ZZC   7 c4
M  ZZC   8 o2
M  ZZC   9 c5
M  ZZC  10 c6
M  ZZC  11 c7
M  ZZC  12 c8
M  ZZC  13 c9
M  ZZC  14 c10
M  ZZC  15 o3
M  ZZC  16 n3
M  ZZC  17 c11
M  ZZC  18 o4
M  ZZC  19 c12
M  ZZC  20 c13
M  ZZC  21 h11
M  ZZC  22 h12
M  ZZC  23 h61
M  ZZC  24 h71
M  ZZC  25 h81
M  ZZC  26 h91
M  ZZC  27 h31
M  ZZC  28 h121
M  ZZC  29 h122
M  ZZC  30 h131
M  ZZC  31 h132
M  ZZM   1 40
M  ZZI   1 224
M  ZZM   2 37
M  ZZI   2 124
M  ZZM   3 37
M  ZZI   3 124
M  ZZM   4 3
M  ZZI   4 121
M  ZZM   5 7
M  ZZI   5 81
M  ZZM   6 10
M  ZZI   6 192
M  ZZM   7 3
M  ZZI   7 121
M  ZZM   8 7
M  ZZI   8 81
M  ZZM   9 37
M  ZZI   9 124
M  ZZM  10 37
M  ZZI  10 125
M  ZZM  11 37
M  ZZI  11 125
M  ZZM  12 37
M  ZZI  12 125
M  ZZM  13 1
M  ZZI  13 113
M  ZZM  14 3
M  ZZI  14 121
M  ZZM  15 7
M  ZZI  15 81
M  ZZM  16 10
M  ZZI  16 191
M  ZZM  17 3
M  ZZI  17 121
M  ZZM  18 7
M  ZZI  18 81
M  ZZM  19 1
M  ZZI  19 112
M  ZZM  20 1
M  ZZI  20 112
M  ZZM  21 28
M  ZZI  21 11
M  ZZM  22 28
M  ZZI  22 11
M  ZZM  23 5
M  ZZI  23 1
M  ZZM  24 5
M  ZZI  24 1
M  ZZM  25 5
M  ZZI  25 1
M  ZZM  26 5
M  ZZI  26 1
M  ZZM  27 28
M  ZZI  27 11
M  ZZM  28 5
M  ZZI  28 1
M  ZZM  29 5
M  ZZI  29 1
M  ZZM  30 5
M  ZZI  30 1
M  ZZM  31 5
M  ZZI  31 1
M  END
> <IX>
1

> <NAME>
Cereblon_5L2I_7.pdb

> <Score>
-18.510273

> <Natom>
31

> <Nflex>
1

> <Hbond>
-3.708355

> <Hphob>
-3.60053

> <VwInt>
-24.251826

> <Dsolv>
15.122698

> <SolEl>
6.936378

> <Eintl>
1.693356

> <RecConf>
ND

> <projPath>
Cereblon_maps/

> <NAME_>
Cereblon_5L2I_7.pdb

$$$$
