Cereblon_5V9O_14.pdb
  MOLSOFT 04032206273D

 31 33  0  0  1  0  0  0  0  0999 V2000
   78.8124   41.6791   43.8061 N   0  0  0  0  0  0  0  0  0  0  0  0
   78.8941   42.4313   42.6242 C   0  0  0  0  0  0  0  0  0  0  0  0
   78.0914   42.1600   41.5288 C   0  0  0  0  0  0  0  0  0  0  0  0
   77.1702   41.0493   41.3237 C   0  0  0  0  0  0  0  0  0  0  0  0
   76.9866   40.1688   42.1509 O   0  0  0  0  0  0  0  0  0  0  0  0
   76.6335   41.2138   40.0622 N   0  0  0  0  0  0  0  0  0  0  0  0
   77.1580   42.3314   39.4451 C   0  0  0  0  0  0  0  0  0  0  0  0
   76.9491   42.7495   38.3137 O   0  0  0  0  0  0  0  0  0  0  0  0
   78.0895   42.9279   40.4037 C   0  0  0  0  0  0  0  0  0  0  0  0
   78.9041   44.0347   40.2791 C   0  0  0  0  0  0  0  0  0  0  0  0
   79.7253   44.3326   41.3604 C   0  0  0  0  0  0  0  0  0  0  0  0
   79.7114   43.5528   42.5187 C   0  0  0  0  0  0  0  0  0  0  0  0
   75.6143   40.3756   39.4270 C   0  0  2  0  0  0  0  0  0  0  0  0
   74.2433   40.9563   39.7272 C   0  0  0  0  0  0  0  0  0  0  0  0
   74.0743   42.1352   39.9902 O   0  0  0  0  0  0  0  0  0  0  0  0
   73.1815   40.0942   39.6008 N   0  0  0  0  0  0  0  0  0  0  0  0
   73.2059   38.7574   39.2833 C   0  0  0  0  0  0  0  0  0  0  0  0
   72.1804   38.1085   39.1576 O   0  0  0  0  0  0  0  0  0  0  0  0
   74.5702   38.1527   39.0487 C   0  0  0  0  0  0  0  0  0  0  0  0
   75.6432   38.9017   39.8199 C   0  0  0  0  0  0  0  0  0  0  0  0
   79.5283   41.7805   44.5226 H   0  0  0  0  0  0  0  0  0  0  0  0
   78.2698   40.8138   43.7945 H   0  0  0  0  0  0  0  0  0  0  0  0
   78.9002   44.6398   39.3801 H   0  0  0  0  0  0  0  0  0  0  0  0
   80.3783   45.1969   41.3116 H   0  0  0  0  0  0  0  0  0  0  0  0
   80.3487   43.8322   43.3522 H   0  0  0  0  0  0  0  0  0  0  0  0
   75.7516   40.4712   38.3487 H   0  0  0  0  0  0  0  0  0  0  0  0
   72.2660   40.4979   39.7559 H   0  0  0  0  0  0  0  0  0  0  0  0
   74.5483   37.1060   39.3682 H   0  0  0  0  0  0  0  0  0  0  0  0
   74.7695   38.1741   37.9728 H   0  0  0  0  0  0  0  0  0  0  0  0
   75.4509   38.7770   40.8895 H   0  0  0  0  0  0  0  0  0  0  0  0
   76.6289   38.4699   39.6190 H   0  0  0  0  0  0  0  0  0  0  0  0
  1  2  1  0  0  0  0
  1 21  1  0  0  0  0
  1 22  1  0  0  0  0
  2  3  1  0  0  0  0
  2 12  2  0  0  0  0
  3  9  2  0  0  0  0
  3  4  1  0  0  0  0
  4  5  2  0  0  0  0
  4  6  1  0  0  0  0
  6  7  1  0  0  0  0
 13  6  1  0  0  0  0
  7  8  2  0  0  0  0
  7  9  1  0  0  0  0
  9 10  1  0  0  0  0
 10 23  1  0  0  0  0
 10 11  2  0  0  0  0
 11 12  1  0  0  0  0
 11 24  1  0  0  0  0
 12 25  1  0  0  0  0
 13 26  1  0  0  0  0
 13 14  1  0  0  0  0
 13 20  1  0  0  0  0
 14 15  2  0  0  0  0
 14 16  1  0  0  0  0
 16 27  1  0  0  0  0
 16 17  1  0  0  0  0
 17 18  2  0  0  0  0
 17 19  1  0  0  0  0
 19 28  1  0  0  0  0
 19 29  1  0  0  0  0
 19 20  1  0  0  0  0
 20 30  1  0  0  0  0
 20 31  1  0  0  0  0
M  ZZC   1 n1
M  ZZC   2 c1
M  ZZC   3 c2
M  ZZC   4 c3
M  ZZC   5 o1
M  ZZC   6 n2
M  ZZC   7 c4
M  ZZC   8 o2
M  ZZC   9 c5
M  ZZC  10 c6
M  ZZC  11 c7
M  ZZC  12 c8
M  ZZC  13 c9
M  ZZC  14 c10
M  ZZC  15 o3
M  ZZC  16 n3
M  ZZC  17 c11
M  ZZC  18 o4
M  ZZC  19 c12
M  ZZC  20 c13
M  ZZC  21 h11
M  ZZC  22 h12
M  ZZC  23 h61
M  ZZC  24 h71
M  ZZC  25 h81
M  ZZC  26 h91
M  ZZC  27 h31
M  ZZC  28 h121
M  ZZC  29 h122
M  ZZC  30 h131
M  ZZC  31 h132
M  ZZM   1 40
M  ZZI   1 224
M  ZZM   2 37
M  ZZI   2 124
M  ZZM   3 37
M  ZZI   3 124
M  ZZM   4 3
M  ZZI   4 121
M  ZZM   5 7
M  ZZI   5 81
M  ZZM   6 10
M  ZZI   6 192
M  ZZM   7 3
M  ZZI   7 121
M  ZZM   8 7
M  ZZI   8 81
M  ZZM   9 37
M  ZZI   9 124
M  ZZM  10 37
M  ZZI  10 125
M  ZZM  11 37
M  ZZI  11 125
M  ZZM  12 37
M  ZZI  12 125
M  ZZM  13 1
M  ZZI  13 113
M  ZZM  14 3
M  ZZI  14 121
M  ZZM  15 7
M  ZZI  15 81
M  ZZM  16 10
M  ZZI  16 191
M  ZZM  17 3
M  ZZI  17 121
M  ZZM  18 7
M  ZZI  18 81
M  ZZM  19 1
M  ZZI  19 112
M  ZZM  20 1
M  ZZI  20 112
M  ZZM  21 28
M  ZZI  21 11
M  ZZM  22 28
M  ZZI  22 11
M  ZZM  23 5
M  ZZI  23 1
M  ZZM  24 5
M  ZZI  24 1
M  ZZM  25 5
M  ZZI  25 1
M  ZZM  26 5
M  ZZI  26 1
M  ZZM  27 28
M  ZZI  27 11
M  ZZM  28 5
M  ZZI  28 1
M  ZZM  29 5
M  ZZI  29 1
M  ZZM  30 5
M  ZZI  30 1
M  ZZM  31 5
M  ZZI  31 1
M  END
> <IX>
1

> <NAME>
Cereblon_5V9O_14.pdb

> <Score>
-18.815074

> <Natom>
31

> <Nflex>
1

> <Hbond>
-3.67848

> <Hphob>
-3.588728

> <VwInt>
-24.31651

> <Dsolv>
15.235585

> <SolEl>
6.321143

> <Eintl>
1.689656

> <RecConf>
ND

> <projPath>
Cereblon_maps/

> <NAME_>
Cereblon_5V9O_14.pdb

$$$$
