Cereblon_6VS3_15.pdb
  MOLSOFT 04032206293D

 29 31  0  0  1  0  0  0  0  0999 V2000
   78.9581   44.0745   40.3279 C   0  0  0  0  0  0  0  0  0  0  0  0
   78.1592   42.9581   40.4694 C   0  0  0  0  0  0  0  0  0  0  0  0
   77.2269   42.3437   39.5232 C   0  0  0  0  0  0  0  0  0  0  0  0
   76.9871   42.7713   38.4015 O   0  0  0  0  0  0  0  0  0  0  0  0
   76.7307   41.2169   40.1459 N   0  0  0  0  0  0  0  0  0  0  0  0
   77.2701   41.0756   41.4113 C   0  0  0  0  0  0  0  0  0  0  0  0
   77.0883   40.2161   42.2599 O   0  0  0  0  0  0  0  0  0  0  0  0
   78.1863   42.1948   41.5977 C   0  0  0  0  0  0  0  0  0  0  0  0
   79.0037   42.4903   42.6744 C   0  0  0  0  0  0  0  0  0  0  0  0
   79.8215   43.6068   42.5489 C   0  0  0  0  0  0  0  0  0  0  0  0
   79.7992   44.3845   41.3906 C   0  0  0  0  0  0  0  0  0  0  0  0
   75.7205   40.3639   39.5138 C   0  0  2  0  0  0  0  0  0  0  0  0
   74.3412   40.9349   39.8022 C   0  0  0  0  0  0  0  0  0  0  0  0
   74.1564   42.1213   40.0171 O   0  0  0  0  0  0  0  0  0  0  0  0
   73.2892   40.0554   39.7227 N   0  0  0  0  0  0  0  0  0  0  0  0
   73.3255   38.7090   39.4540 C   0  0  0  0  0  0  0  0  0  0  0  0
   72.3087   38.0370   39.3971 O   0  0  0  0  0  0  0  0  0  0  0  0
   74.6895   38.1250   39.1787 C   0  0  0  0  0  0  0  0  0  0  0  0
   75.7721   38.8936   39.9160 C   0  0  0  0  0  0  0  0  0  0  0  0
   78.9273   44.6765   39.4275 H   0  0  0  0  0  0  0  0  0  0  0  0
   79.0155   41.8747   43.5696 H   0  0  0  0  0  0  0  0  0  0  0  0
   80.4894   43.8749   43.3626 H   0  0  0  0  0  0  0  0  0  0  0  0
   80.4482   45.2498   41.3207 H   0  0  0  0  0  0  0  0  0  0  0  0
   75.8595   40.4513   38.4342 H   0  0  0  0  0  0  0  0  0  0  0  0
   72.3714   40.4508   39.8846 H   0  0  0  0  0  0  0  0  0  0  0  0
   74.6944   37.0793   39.5024 H   0  0  0  0  0  0  0  0  0  0  0  0
   74.8515   38.1468   38.0967 H   0  0  0  0  0  0  0  0  0  0  0  0
   75.6083   38.7748   40.9907 H   0  0  0  0  0  0  0  0  0  0  0  0
   76.7570   38.4694   39.6950 H   0  0  0  0  0  0  0  0  0  0  0  0
  1 20  1  0  0  0  0
  1  2  1  0  0  0  0
  1 11  2  0  0  0  0
  2  3  1  0  0  0  0
  2  8  2  0  0  0  0
  3  4  2  0  0  0  0
  3  5  1  0  0  0  0
  5  6  1  0  0  0  0
 12  5  1  0  0  0  0
  6  7  2  0  0  0  0
  6  8  1  0  0  0  0
  8  9  1  0  0  0  0
  9 21  1  0  0  0  0
  9 10  2  0  0  0  0
 10 22  1  0  0  0  0
 10 11  1  0  0  0  0
 11 23  1  0  0  0  0
 12 24  1  0  0  0  0
 12 13  1  0  0  0  0
 12 19  1  0  0  0  0
 13 14  2  0  0  0  0
 13 15  1  0  0  0  0
 15 25  1  0  0  0  0
 15 16  1  0  0  0  0
 16 17  2  0  0  0  0
 16 18  1  0  0  0  0
 18 26  1  0  0  0  0
 18 27  1  0  0  0  0
 18 19  1  0  0  0  0
 19 28  1  0  0  0  0
 19 29  1  0  0  0  0
M  ZZC   1 c1
M  ZZC   2 c2
M  ZZC   3 c3
M  ZZC   4 o1
M  ZZC   5 n1
M  ZZC   6 c4
M  ZZC   7 o2
M  ZZC   8 c5
M  ZZC   9 c6
M  ZZC  10 c7
M  ZZC  11 c8
M  ZZC  12 c9
M  ZZC  13 c10
M  ZZC  14 o3
M  ZZC  15 n2
M  ZZC  16 c11
M  ZZC  17 o4
M  ZZC  18 c12
M  ZZC  19 c13
M  ZZC  20 h11
M  ZZC  21 h61
M  ZZC  22 h71
M  ZZC  23 h81
M  ZZC  24 h91
M  ZZC  25 h21
M  ZZC  26 h121
M  ZZC  27 h122
M  ZZC  28 h131
M  ZZC  29 h132
M  ZZM   1 37
M  ZZI   1 125
M  ZZM   2 37
M  ZZI   2 124
M  ZZM   3 3
M  ZZI   3 121
M  ZZM   4 7
M  ZZI   4 81
M  ZZM   5 10
M  ZZI   5 192
M  ZZM   6 3
M  ZZI   6 121
M  ZZM   7 7
M  ZZI   7 81
M  ZZM   8 37
M  ZZI   8 124
M  ZZM   9 37
M  ZZI   9 125
M  ZZM  10 37
M  ZZI  10 125
M  ZZM  11 37
M  ZZI  11 125
M  ZZM  12 1
M  ZZI  12 113
M  ZZM  13 3
M  ZZI  13 121
M  ZZM  14 7
M  ZZI  14 81
M  ZZM  15 10
M  ZZI  15 191
M  ZZM  16 3
M  ZZI  16 121
M  ZZM  17 7
M  ZZI  17 81
M  ZZM  18 1
M  ZZI  18 112
M  ZZM  19 1
M  ZZI  19 112
M  ZZM  20 5
M  ZZI  20 1
M  ZZM  21 5
M  ZZI  21 1
M  ZZM  22 5
M  ZZI  22 1
M  ZZM  23 5
M  ZZI  23 1
M  ZZM  24 5
M  ZZI  24 1
M  ZZM  25 28
M  ZZI  25 11
M  ZZM  26 5
M  ZZI  26 1
M  ZZM  27 5
M  ZZI  27 1
M  ZZM  28 5
M  ZZI  28 1
M  ZZM  29 5
M  ZZI  29 1
M  END
> <IX>
1

> <NAME>
Cereblon_6VS3_15.pdb

> <Score>
-19.333178

> <Natom>
29

> <Nflex>
1

> <Hbond>
-3.362829

> <Hphob>
-3.576279

> <VwInt>
-22.628388

> <Dsolv>
12.060866

> <SolEl>
5.582683

> <Eintl>
1.448422

> <RecConf>
ND

> <projPath>
Cereblon_maps/

> <NAME_>
Cereblon_6VS3_15.pdb

$$$$
