Cereblon_4QNQ_28.pdb
  MOLSOFT 04032206233D

 31 33  0  0  1  0  0  0  0  0999 V2000
   69.6276   54.3968    6.1906 N   0  0  0  0  0  0  0  0  0  0  0  0
   70.0534   53.1427    5.7182 C   0  0  0  0  0  0  0  0  0  0  0  0
   70.7485   53.0067    4.5281 C   0  0  0  0  0  0  0  0  0  0  0  0
   71.0743   54.0211    3.5316 C   0  0  0  0  0  0  0  0  0  0  0  0
   70.7534   55.1957    3.6325 O   0  0  0  0  0  0  0  0  0  0  0  0
   71.7373   53.3685    2.5117 N   0  0  0  0  0  0  0  0  0  0  0  0
   71.8455   52.0207    2.7791 C   0  0  0  0  0  0  0  0  0  0  0  0
   72.3512   51.1323    2.1087 O   0  0  0  0  0  0  0  0  0  0  0  0
   71.2143   51.8081    4.0796 C   0  0  0  0  0  0  0  0  0  0  0  0
   71.0613   50.6420    4.8049 C   0  0  0  0  0  0  0  0  0  0  0  0
   70.4099   50.7512    6.0266 C   0  0  0  0  0  0  0  0  0  0  0  0
   69.9254   51.9805    6.4750 C   0  0  0  0  0  0  0  0  0  0  0  0
   72.1992   53.9855    1.2650 C   0  0  1  0  0  0  0  0  0  0  0  0
   70.9998   54.3299    0.3867 C   0  0  0  0  0  0  0  0  0  0  0  0
   69.9062   53.7969    0.5042 O   0  0  0  0  0  0  0  0  0  0  0  0
   71.2172   55.2873   -0.5764 N   0  0  0  0  0  0  0  0  0  0  0  0
   72.2903   56.1355   -0.6871 C   0  0  0  0  0  0  0  0  0  0  0  0
   72.2585   57.1048   -1.4263 O   0  0  0  0  0  0  0  0  0  0  0  0
   73.4962   55.7849    0.1439 C   0  0  0  0  0  0  0  0  0  0  0  0
   73.0682   55.2191    1.4863 C   0  0  0  0  0  0  0  0  0  0  0  0
   68.8626   54.4356    6.8614 H   0  0  0  0  0  0  0  0  0  0  0  0
   69.7009   55.1833    5.5426 H   0  0  0  0  0  0  0  0  0  0  0  0
   71.4387   49.6901    4.4435 H   0  0  0  0  0  0  0  0  0  0  0  0
   70.2803   49.8675    6.6443 H   0  0  0  0  0  0  0  0  0  0  0  0
   69.4427   52.0201    7.4421 H   0  0  0  0  0  0  0  0  0  0  0  0
   72.7765   53.2339    0.7144 H   0  0  0  0  0  0  0  0  0  0  0  0
   70.4181   55.5229   -1.1541 H   0  0  0  0  0  0  0  0  0  0  0  0
   74.1032   55.0651   -0.4149 H   0  0  0  0  0  0  0  0  0  0  0  0
   74.0932   56.6897    0.2858 H   0  0  0  0  0  0  0  0  0  0  0  0
   72.5223   55.9907    2.0386 H   0  0  0  0  0  0  0  0  0  0  0  0
   73.9468   54.9594    2.0857 H   0  0  0  0  0  0  0  0  0  0  0  0
  1  2  1  0  0  0  0
  1 21  1  0  0  0  0
  1 22  1  0  0  0  0
  2  3  1  0  0  0  0
  2 12  2  0  0  0  0
  3  9  2  0  0  0  0
  3  4  1  0  0  0  0
  4  5  2  0  0  0  0
  4  6  1  0  0  0  0
  6  7  1  0  0  0  0
 13  6  1  0  0  0  0
  7  8  2  0  0  0  0
  7  9  1  0  0  0  0
  9 10  1  0  0  0  0
 10 23  1  0  0  0  0
 10 11  2  0  0  0  0
 11 12  1  0  0  0  0
 11 24  1  0  0  0  0
 12 25  1  0  0  0  0
 13 26  1  0  0  0  0
 13 14  1  0  0  0  0
 13 20  1  0  0  0  0
 14 15  2  0  0  0  0
 14 16  1  0  0  0  0
 16 27  1  0  0  0  0
 16 17  1  0  0  0  0
 17 18  2  0  0  0  0
 17 19  1  0  0  0  0
 19 28  1  0  0  0  0
 19 29  1  0  0  0  0
 19 20  1  0  0  0  0
 20 30  1  0  0  0  0
 20 31  1  0  0  0  0
M  ZZC   1 n1
M  ZZC   2 c1
M  ZZC   3 c2
M  ZZC   4 c3
M  ZZC   5 o1
M  ZZC   6 n2
M  ZZC   7 c4
M  ZZC   8 o2
M  ZZC   9 c5
M  ZZC  10 c6
M  ZZC  11 c7
M  ZZC  12 c8
M  ZZC  13 c9
M  ZZC  14 c10
M  ZZC  15 o3
M  ZZC  16 n3
M  ZZC  17 c11
M  ZZC  18 o4
M  ZZC  19 c12
M  ZZC  20 c13
M  ZZC  21 h11
M  ZZC  22 h12
M  ZZC  23 h61
M  ZZC  24 h71
M  ZZC  25 h81
M  ZZC  26 h91
M  ZZC  27 h31
M  ZZC  28 h121
M  ZZC  29 h122
M  ZZC  30 h131
M  ZZC  31 h132
M  ZZM   1 40
M  ZZI   1 224
M  ZZM   2 37
M  ZZI   2 124
M  ZZM   3 37
M  ZZI   3 124
M  ZZM   4 3
M  ZZI   4 121
M  ZZM   5 7
M  ZZI   5 81
M  ZZM   6 10
M  ZZI   6 192
M  ZZM   7 3
M  ZZI   7 121
M  ZZM   8 7
M  ZZI   8 81
M  ZZM   9 37
M  ZZI   9 124
M  ZZM  10 37
M  ZZI  10 125
M  ZZM  11 37
M  ZZI  11 125
M  ZZM  12 37
M  ZZI  12 125
M  ZZM  13 1
M  ZZI  13 113
M  ZZM  14 3
M  ZZI  14 121
M  ZZM  15 7
M  ZZI  15 81
M  ZZM  16 10
M  ZZI  16 191
M  ZZM  17 3
M  ZZI  17 121
M  ZZM  18 7
M  ZZI  18 81
M  ZZM  19 1
M  ZZI  19 112
M  ZZM  20 1
M  ZZI  20 112
M  ZZM  21 28
M  ZZI  21 11
M  ZZM  22 28
M  ZZI  22 11
M  ZZM  23 5
M  ZZI  23 1
M  ZZM  24 5
M  ZZI  24 1
M  ZZM  25 5
M  ZZI  25 1
M  ZZM  26 5
M  ZZI  26 1
M  ZZM  27 28
M  ZZI  27 11
M  ZZM  28 5
M  ZZI  28 1
M  ZZM  29 5
M  ZZI  29 1
M  ZZM  30 5
M  ZZI  30 1
M  ZZM  31 5
M  ZZI  31 1
M  END
> <IX>
1

> <NAME>
Cereblon_4QNQ_28.pdb

> <Score>
-20.002701

> <Natom>
31

> <Nflex>
1

> <Hbond>
-6.051323

> <Hphob>
-3.422375

> <VwInt>
-16.714204

> <Dsolv>
12.494549

> <SolEl>
5.400475

> <Eintl>
1.298527

> <RecConf>
ND

> <projPath>
Cereblon_maps/

> <NAME_>
Cereblon_4QNQ_28.pdb

$$$$
