Cereblon_5UIU_3.pdb
  MOLSOFT 04032206273D

 29 31  0  0  1  0  0  0  0  0999 V2000
   76.3144   40.4888   40.6543 C   0  0  0  0  0  0  0  0  0  0  0  0
   75.3250   40.2819   39.7103 C   0  0  0  0  0  0  0  0  0  0  0  0
   74.4535   41.2468   39.0463 C   0  0  0  0  0  0  0  0  0  0  0  0
   74.4461   42.4318   39.3420 O   0  0  0  0  0  0  0  0  0  0  0  0
   73.6914   40.5324   38.1395 N   0  0  0  0  0  0  0  0  0  0  0  0
   73.9559   39.1814   38.2470 C   0  0  0  0  0  0  0  0  0  0  0  0
   73.4496   38.2405   37.6530 O   0  0  0  0  0  0  0  0  0  0  0  0
   75.0138   39.0418   39.2462 C   0  0  0  0  0  0  0  0  0  0  0  0
   75.6602   37.9070   39.7010 C   0  0  0  0  0  0  0  0  0  0  0  0
   76.6577   38.0902   40.6524 C   0  0  0  0  0  0  0  0  0  0  0  0
   76.9806   39.3632   41.1228 C   0  0  0  0  0  0  0  0  0  0  0  0
   72.6615   41.0714   37.2385 C   0  0  1  0  0  0  0  0  0  0  0  0
   71.3538   41.2750   37.9972 C   0  0  0  0  0  0  0  0  0  0  0  0
   71.0405   40.6196   38.9803 O   0  0  0  0  0  0  0  0  0  0  0  0
   70.4836   42.1950   37.4582 N   0  0  0  0  0  0  0  0  0  0  0  0
   70.6751   43.0437   36.3997 C   0  0  0  0  0  0  0  0  0  0  0  0
   69.8508   43.8988   36.1141 O   0  0  0  0  0  0  0  0  0  0  0  0
   71.9465   42.8332   35.6168 C   0  0  0  0  0  0  0  0  0  0  0  0
   73.0744   42.3521   36.5161 C   0  0  0  0  0  0  0  0  0  0  0  0
   76.5691   41.4825   41.0092 H   0  0  0  0  0  0  0  0  0  0  0  0
   75.4070   36.9191   39.3275 H   0  0  0  0  0  0  0  0  0  0  0  0
   77.1957   37.2284   41.0350 H   0  0  0  0  0  0  0  0  0  0  0  0
   77.7647   39.4786   41.8653 H   0  0  0  0  0  0  0  0  0  0  0  0
   72.4506   40.3010   36.4875 H   0  0  0  0  0  0  0  0  0  0  0  0
   69.6131   42.3241   37.9526 H   0  0  0  0  0  0  0  0  0  0  0  0
   71.7457   42.1146   34.8149 H   0  0  0  0  0  0  0  0  0  0  0  0
   72.2226   43.7857   35.1603 H   0  0  0  0  0  0  0  0  0  0  0  0
   73.9771   42.1768   35.9223 H   0  0  0  0  0  0  0  0  0  0  0  0
   73.3192   43.1442   37.2289 H   0  0  0  0  0  0  0  0  0  0  0  0
  1 20  1  0  0  0  0
  1  2  1  0  0  0  0
  1 11  2  0  0  0  0
  2  3  1  0  0  0  0
  2  8  2  0  0  0  0
  3  4  2  0  0  0  0
  3  5  1  0  0  0  0
  5  6  1  0  0  0  0
 12  5  1  0  0  0  0
  6  7  2  0  0  0  0
  6  8  1  0  0  0  0
  8  9  1  0  0  0  0
  9 21  1  0  0  0  0
  9 10  2  0  0  0  0
 10 22  1  0  0  0  0
 10 11  1  0  0  0  0
 11 23  1  0  0  0  0
 12 24  1  0  0  0  0
 12 13  1  0  0  0  0
 12 19  1  0  0  0  0
 13 14  2  0  0  0  0
 13 15  1  0  0  0  0
 15 25  1  0  0  0  0
 15 16  1  0  0  0  0
 16 17  2  0  0  0  0
 16 18  1  0  0  0  0
 18 26  1  0  0  0  0
 18 27  1  0  0  0  0
 18 19  1  0  0  0  0
 19 28  1  0  0  0  0
 19 29  1  0  0  0  0
M  ZZC   1 c1
M  ZZC   2 c2
M  ZZC   3 c3
M  ZZC   4 o1
M  ZZC   5 n1
M  ZZC   6 c4
M  ZZC   7 o2
M  ZZC   8 c5
M  ZZC   9 c6
M  ZZC  10 c7
M  ZZC  11 c8
M  ZZC  12 c9
M  ZZC  13 c10
M  ZZC  14 o3
M  ZZC  15 n2
M  ZZC  16 c11
M  ZZC  17 o4
M  ZZC  18 c12
M  ZZC  19 c13
M  ZZC  20 h11
M  ZZC  21 h61
M  ZZC  22 h71
M  ZZC  23 h81
M  ZZC  24 h91
M  ZZC  25 h21
M  ZZC  26 h121
M  ZZC  27 h122
M  ZZC  28 h131
M  ZZC  29 h132
M  ZZM   1 37
M  ZZI   1 125
M  ZZM   2 37
M  ZZI   2 124
M  ZZM   3 3
M  ZZI   3 121
M  ZZM   4 7
M  ZZI   4 81
M  ZZM   5 10
M  ZZI   5 192
M  ZZM   6 3
M  ZZI   6 121
M  ZZM   7 7
M  ZZI   7 81
M  ZZM   8 37
M  ZZI   8 124
M  ZZM   9 37
M  ZZI   9 125
M  ZZM  10 37
M  ZZI  10 125
M  ZZM  11 37
M  ZZI  11 125
M  ZZM  12 1
M  ZZI  12 113
M  ZZM  13 3
M  ZZI  13 121
M  ZZM  14 7
M  ZZI  14 81
M  ZZM  15 10
M  ZZI  15 191
M  ZZM  16 3
M  ZZI  16 121
M  ZZM  17 7
M  ZZI  17 81
M  ZZM  18 1
M  ZZI  18 112
M  ZZM  19 1
M  ZZI  19 112
M  ZZM  20 5
M  ZZI  20 1
M  ZZM  21 5
M  ZZI  21 1
M  ZZM  22 5
M  ZZI  22 1
M  ZZM  23 5
M  ZZI  23 1
M  ZZM  24 5
M  ZZI  24 1
M  ZZM  25 28
M  ZZI  25 11
M  ZZM  26 5
M  ZZI  26 1
M  ZZM  27 5
M  ZZI  27 1
M  ZZM  28 5
M  ZZI  28 1
M  ZZM  29 5
M  ZZI  29 1
M  END
> <IX>
1

> <NAME>
Cereblon_5UIU_3.pdb

> <Score>
-21.002796

> <Natom>
29

> <Nflex>
1

> <Hbond>
-4.514183

> <Hphob>
-3.505678

> <VwInt>
-22.573541

> <Dsolv>
13.487158

> <SolEl>
6.48689

> <Eintl>
0.572859

> <RecConf>
ND

> <projPath>
Cereblon_maps/

> <NAME_>
Cereblon_5UIU_3.pdb

$$$$
