Cereblon_5VBP_20.pdb
  MOLSOFT 04032206273D

 29 31  0  0  1  0  0  0  0  0999 V2000
   71.0382   40.6180   38.9762 O   0  0  0  0  0  0  0  0  0  0  0  0
   71.3524   41.2752   37.9946 C   0  0  0  0  0  0  0  0  0  0  0  0
   72.6608   41.0728   37.2370 C   0  0  2  0  0  0  0  0  0  0  0  0
   73.6903   40.5332   38.1378 N   0  0  0  0  0  0  0  0  0  0  0  0
   74.4524   41.2463   39.0459 C   0  0  0  0  0  0  0  0  0  0  0  0
   74.4425   42.4311   39.3425 O   0  0  0  0  0  0  0  0  0  0  0  0
   75.3228   40.2799   39.7095 C   0  0  0  0  0  0  0  0  0  0  0  0
   76.3130   40.4848   40.6531 C   0  0  0  0  0  0  0  0  0  0  0  0
   76.9788   39.3585   41.1203 C   0  0  0  0  0  0  0  0  0  0  0  0
   76.6548   38.0859   40.6490 C   0  0  0  0  0  0  0  0  0  0  0  0
   75.6575   37.9048   39.6971 C   0  0  0  0  0  0  0  0  0  0  0  0
   75.0115   39.0406   39.2438 C   0  0  0  0  0  0  0  0  0  0  0  0
   73.9550   39.1823   38.2438 C   0  0  0  0  0  0  0  0  0  0  0  0
   73.4477   38.2431   37.6479 O   0  0  0  0  0  0  0  0  0  0  0  0
   73.0732   42.3547   36.5163 C   0  0  0  0  0  0  0  0  0  0  0  0
   71.9458   42.8363   35.6167 C   0  0  0  0  0  0  0  0  0  0  0  0
   70.6738   43.0460   36.3990 C   0  0  0  0  0  0  0  0  0  0  0  0
   69.8495   43.9009   36.1127 O   0  0  0  0  0  0  0  0  0  0  0  0
   70.4827   42.1964   37.4570 N   0  0  0  0  0  0  0  0  0  0  0  0
   72.4510   40.3032   36.4849 H   0  0  0  0  0  0  0  0  0  0  0  0
   76.5670   41.4779   41.0097 H   0  0  0  0  0  0  0  0  0  0  0  0
   77.7625   39.4734   41.8633 H   0  0  0  0  0  0  0  0  0  0  0  0
   77.1919   37.2233   41.0302 H   0  0  0  0  0  0  0  0  0  0  0  0
   75.4038   36.9172   39.3227 H   0  0  0  0  0  0  0  0  0  0  0  0
   73.3163   43.1468   37.2299 H   0  0  0  0  0  0  0  0  0  0  0  0
   73.9759   42.1817   35.9219 H   0  0  0  0  0  0  0  0  0  0  0  0
   72.2220   43.7893   35.1616 H   0  0  0  0  0  0  0  0  0  0  0  0
   71.7465   42.1176   34.8144 H   0  0  0  0  0  0  0  0  0  0  0  0
   69.6120   42.3253   37.9510 H   0  0  0  0  0  0  0  0  0  0  0  0
  1  2  2  0  0  0  0
  3  2  1  0  0  0  0
  2 19  1  0  0  0  0
  3  4  1  0  0  0  0
  3 20  1  0  0  0  0
  3 15  1  0  0  0  0
  4  5  1  0  0  0  0
  4 13  1  0  0  0  0
  5  7  1  0  0  0  0
  5  6  2  0  0  0  0
  7  8  1  0  0  0  0
  7 12  2  0  0  0  0
  8 21  1  0  0  0  0
  8  9  2  0  0  0  0
  9 10  1  0  0  0  0
  9 22  1  0  0  0  0
 10 11  2  0  0  0  0
 10 23  1  0  0  0  0
 11 12  1  0  0  0  0
 11 24  1  0  0  0  0
 12 13  1  0  0  0  0
 13 14  2  0  0  0  0
 15 16  1  0  0  0  0
 15 25  1  0  0  0  0
 15 26  1  0  0  0  0
 16 17  1  0  0  0  0
 16 27  1  0  0  0  0
 16 28  1  0  0  0  0
 17 19  1  0  0  0  0
 17 18  2  0  0  0  0
 19 29  1  0  0  0  0
M  ZZC   1 o1
M  ZZC   2 c1
M  ZZC   3 c2
M  ZZC   4 n1
M  ZZC   5 c3
M  ZZC   6 o2
M  ZZC   7 c4
M  ZZC   8 c5
M  ZZC   9 c6
M  ZZC  10 c7
M  ZZC  11 c8
M  ZZC  12 c9
M  ZZC  13 c10
M  ZZC  14 o3
M  ZZC  15 c11
M  ZZC  16 c12
M  ZZC  17 c13
M  ZZC  18 o4
M  ZZC  19 n2
M  ZZC  20 h21
M  ZZC  21 h51
M  ZZC  22 h61
M  ZZC  23 h71
M  ZZC  24 h81
M  ZZC  25 h111
M  ZZC  26 h112
M  ZZC  27 h121
M  ZZC  28 h122
M  ZZC  29 h01
M  ZZM   1 7
M  ZZI   1 81
M  ZZM   2 3
M  ZZI   2 121
M  ZZM   3 1
M  ZZI   3 113
M  ZZM   4 10
M  ZZI   4 192
M  ZZM   5 3
M  ZZI   5 121
M  ZZM   6 7
M  ZZI   6 81
M  ZZM   7 37
M  ZZI   7 124
M  ZZM   8 37
M  ZZI   8 125
M  ZZM   9 37
M  ZZI   9 125
M  ZZM  10 37
M  ZZI  10 125
M  ZZM  11 37
M  ZZI  11 125
M  ZZM  12 37
M  ZZI  12 124
M  ZZM  13 3
M  ZZI  13 121
M  ZZM  14 7
M  ZZI  14 81
M  ZZM  15 1
M  ZZI  15 112
M  ZZM  16 1
M  ZZI  16 112
M  ZZM  17 3
M  ZZI  17 121
M  ZZM  18 7
M  ZZI  18 81
M  ZZM  19 10
M  ZZI  19 191
M  ZZM  20 5
M  ZZI  20 1
M  ZZM  21 5
M  ZZI  21 1
M  ZZM  22 5
M  ZZI  22 1
M  ZZM  23 5
M  ZZI  23 1
M  ZZM  24 5
M  ZZI  24 1
M  ZZM  25 5
M  ZZI  25 1
M  ZZM  26 5
M  ZZI  26 1
M  ZZM  27 5
M  ZZI  27 1
M  ZZM  28 5
M  ZZI  28 1
M  ZZM  29 28
M  ZZI  29 11
M  END
> <IX>
1

> <NAME>
Cereblon_5VBP_20.pdb

> <Score>
-21.071993

> <Natom>
29

> <Nflex>
1

> <Hbond>
-4.524511

> <Hphob>
-3.515765

> <VwInt>
-22.561433

> <Dsolv>
13.457552

> <SolEl>
6.457017

> <Eintl>
0.562032

> <RecConf>
ND

> <projPath>
Cereblon_maps/

> <NAME_>
Cereblon_5VBP_20.pdb

$$$$
