Cereblon_5V5Y_2.pdb
  MOLSOFT 04032206273D

 31 33  0  0  1  0  0  0  0  0999 V2000
   81.6206   53.0760   19.7066 N   0  0  0  0  0  0  0  0  0  0  0  0
   81.9331   54.4413   19.7376 C   0  0  0  0  0  0  0  0  0  0  0  0
   81.2314   55.3380   20.5252 C   0  0  0  0  0  0  0  0  0  0  0  0
   80.0303   55.1247   21.3278 C   0  0  0  0  0  0  0  0  0  0  0  0
   79.4228   54.0655   21.4001 O   0  0  0  0  0  0  0  0  0  0  0  0
   79.7612   56.3264   21.9462 N   0  0  0  0  0  0  0  0  0  0  0  0
   80.6740   57.2924   21.5768 C   0  0  0  0  0  0  0  0  0  0  0  0
   80.7478   58.4688   21.9003 O   0  0  0  0  0  0  0  0  0  0  0  0
   81.6120   56.6382   20.6679 C   0  0  0  0  0  0  0  0  0  0  0  0
   82.7290   57.1509   20.0353 C   0  0  0  0  0  0  0  0  0  0  0  0
   83.4615   56.2684   19.2517 C   0  0  0  0  0  0  0  0  0  0  0  0
   83.0792   54.9320   19.1250 C   0  0  0  0  0  0  0  0  0  0  0  0
   78.6177   56.5120   22.8391 C   0  0  2  0  0  0  0  0  0  0  0  0
   77.4677   57.1881   22.1172 C   0  0  0  0  0  0  0  0  0  0  0  0
   77.3328   57.1805   20.9026 O   0  0  0  0  0  0  0  0  0  0  0  0
   76.5173   57.7374   22.9449 N   0  0  0  0  0  0  0  0  0  0  0  0
   76.4984   57.7894   24.3181 C   0  0  0  0  0  0  0  0  0  0  0  0
   75.5308   58.2097   24.9317 O   0  0  0  0  0  0  0  0  0  0  0  0
   77.7203   57.2483   25.0224 C   0  0  0  0  0  0  0  0  0  0  0  0
   78.9342   57.2864   24.1147 C   0  0  0  0  0  0  0  0  0  0  0  0
   82.0384   52.5285   18.9593 H   0  0  0  0  0  0  0  0  0  0  0  0
   80.6527   52.8426   19.9274 H   0  0  0  0  0  0  0  0  0  0  0  0
   83.0284   58.1877   20.1552 H   0  0  0  0  0  0  0  0  0  0  0  0
   84.3557   56.6186   18.7431 H   0  0  0  0  0  0  0  0  0  0  0  0
   83.6898   54.2583   18.5324 H   0  0  0  0  0  0  0  0  0  0  0  0
   78.2518   55.5151   23.1000 H   0  0  0  0  0  0  0  0  0  0  0  0
   75.7239   58.1572   22.4791 H   0  0  0  0  0  0  0  0  0  0  0  0
   77.9065   57.8470   25.9197 H   0  0  0  0  0  0  0  0  0  0  0  0
   77.5105   56.2226   25.3353 H   0  0  0  0  0  0  0  0  0  0  0  0
   79.1861   58.3287   23.8917 H   0  0  0  0  0  0  0  0  0  0  0  0
   79.7971   56.8533   24.6287 H   0  0  0  0  0  0  0  0  0  0  0  0
  1  2  1  0  0  0  0
  1 21  1  0  0  0  0
  1 22  1  0  0  0  0
  2  3  1  0  0  0  0
  2 12  2  0  0  0  0
  3  9  2  0  0  0  0
  3  4  1  0  0  0  0
  4  5  2  0  0  0  0
  4  6  1  0  0  0  0
  6  7  1  0  0  0  0
 13  6  1  0  0  0  0
  7  8  2  0  0  0  0
  7  9  1  0  0  0  0
  9 10  1  0  0  0  0
 10 23  1  0  0  0  0
 10 11  2  0  0  0  0
 11 12  1  0  0  0  0
 11 24  1  0  0  0  0
 12 25  1  0  0  0  0
 13 26  1  0  0  0  0
 13 14  1  0  0  0  0
 13 20  1  0  0  0  0
 14 15  2  0  0  0  0
 14 16  1  0  0  0  0
 16 27  1  0  0  0  0
 16 17  1  0  0  0  0
 17 18  2  0  0  0  0
 17 19  1  0  0  0  0
 19 28  1  0  0  0  0
 19 29  1  0  0  0  0
 19 20  1  0  0  0  0
 20 30  1  0  0  0  0
 20 31  1  0  0  0  0
M  ZZC   1 n1
M  ZZC   2 c1
M  ZZC   3 c2
M  ZZC   4 c3
M  ZZC   5 o1
M  ZZC   6 n2
M  ZZC   7 c4
M  ZZC   8 o2
M  ZZC   9 c5
M  ZZC  10 c6
M  ZZC  11 c7
M  ZZC  12 c8
M  ZZC  13 c9
M  ZZC  14 c10
M  ZZC  15 o3
M  ZZC  16 n3
M  ZZC  17 c11
M  ZZC  18 o4
M  ZZC  19 c12
M  ZZC  20 c13
M  ZZC  21 h11
M  ZZC  22 h12
M  ZZC  23 h61
M  ZZC  24 h71
M  ZZC  25 h81
M  ZZC  26 h91
M  ZZC  27 h31
M  ZZC  28 h121
M  ZZC  29 h122
M  ZZC  30 h131
M  ZZC  31 h132
M  ZZM   1 40
M  ZZI   1 224
M  ZZM   2 37
M  ZZI   2 124
M  ZZM   3 37
M  ZZI   3 124
M  ZZM   4 3
M  ZZI   4 121
M  ZZM   5 7
M  ZZI   5 81
M  ZZM   6 10
M  ZZI   6 192
M  ZZM   7 3
M  ZZI   7 121
M  ZZM   8 7
M  ZZI   8 81
M  ZZM   9 37
M  ZZI   9 124
M  ZZM  10 37
M  ZZI  10 125
M  ZZM  11 37
M  ZZI  11 125
M  ZZM  12 37
M  ZZI  12 125
M  ZZM  13 1
M  ZZI  13 113
M  ZZM  14 3
M  ZZI  14 121
M  ZZM  15 7
M  ZZI  15 81
M  ZZM  16 10
M  ZZI  16 191
M  ZZM  17 3
M  ZZI  17 121
M  ZZM  18 7
M  ZZI  18 81
M  ZZM  19 1
M  ZZI  19 112
M  ZZM  20 1
M  ZZI  20 112
M  ZZM  21 28
M  ZZI  21 11
M  ZZM  22 28
M  ZZI  22 11
M  ZZM  23 5
M  ZZI  23 1
M  ZZM  24 5
M  ZZI  24 1
M  ZZM  25 5
M  ZZI  25 1
M  ZZM  26 5
M  ZZI  26 1
M  ZZM  27 28
M  ZZI  27 11
M  ZZM  28 5
M  ZZI  28 1
M  ZZM  29 5
M  ZZI  29 1
M  ZZM  30 5
M  ZZI  30 1
M  ZZM  31 5
M  ZZI  31 1
M  END
> <IX>
1

> <NAME>
Cereblon_5V5Y_2.pdb

> <Score>
-23.305722

> <Natom>
31

> <Nflex>
1

> <Hbond>
-4.496588

> <Hphob>
-3.318004

> <VwInt>
-24.664797

> <Dsolv>
14.01576

> <SolEl>
5.041264

> <Eintl>
0.865752

> <RecConf>
ND

> <projPath>
Cereblon_maps/

> <NAME_>
Cereblon_5V5Y_2.pdb

$$$$
