Cereblon_4QNQ_49.pdb
  MOLSOFT 04032206243D

 31 33  0  0  1  0  0  0  0  0999 V2000
   76.8746   41.5621   40.9089 N   0  0  0  0  0  0  0  0  0  0  0  0
   76.4300   40.3119   40.4542 C   0  0  0  0  0  0  0  0  0  0  0  0
   75.3388   40.1686   39.6092 C   0  0  0  0  0  0  0  0  0  0  0  0
   74.4861   41.1842   38.9881 C   0  0  0  0  0  0  0  0  0  0  0  0
   74.5416   42.3690   39.2863 O   0  0  0  0  0  0  0  0  0  0  0  0
   73.6477   40.5111   38.1156 N   0  0  0  0  0  0  0  0  0  0  0  0
   73.8253   39.1475   38.2308 C   0  0  0  0  0  0  0  0  0  0  0  0
   73.2325   38.2369   37.6705 O   0  0  0  0  0  0  0  0  0  0  0  0
   74.9115   38.9474   39.1856 C   0  0  0  0  0  0  0  0  0  0  0  0
   75.4872   37.7689   39.6212 C   0  0  0  0  0  0  0  0  0  0  0  0
   76.5406   37.8831   40.5182 C   0  0  0  0  0  0  0  0  0  0  0  0
   76.9967   39.1340   40.9322 C   0  0  0  0  0  0  0  0  0  0  0  0
   72.6202   41.0929   37.2388 C   0  0  1  0  0  0  0  0  0  0  0  0
   71.3222   41.3110   38.0082 C   0  0  0  0  0  0  0  0  0  0  0  0
   71.0116   40.6657   38.9987 O   0  0  0  0  0  0  0  0  0  0  0  0
   70.4543   42.2304   37.4658 N   0  0  0  0  0  0  0  0  0  0  0  0
   70.6486   43.0781   36.4071 C   0  0  0  0  0  0  0  0  0  0  0  0
   69.8183   43.9243   36.1126 O   0  0  0  0  0  0  0  0  0  0  0  0
   71.9291   42.8796   35.6349 C   0  0  0  0  0  0  0  0  0  0  0  0
   73.0499   42.3765   36.5323 C   0  0  0  0  0  0  0  0  0  0  0  0
   77.8130   41.6189   41.2979 H   0  0  0  0  0  0  0  0  0  0  0  0
   76.5285   42.3911   40.4258 H   0  0  0  0  0  0  0  0  0  0  0  0
   75.1347   36.8005   39.2784 H   0  0  0  0  0  0  0  0  0  0  0  0
   77.0192   36.9860   40.8991 H   0  0  0  0  0  0  0  0  0  0  0  0
   77.8199   39.1864   41.6379 H   0  0  0  0  0  0  0  0  0  0  0  0
   72.3846   40.3416   36.4761 H   0  0  0  0  0  0  0  0  0  0  0  0
   69.5810   42.3585   37.9557 H   0  0  0  0  0  0  0  0  0  0  0  0
   71.7342   42.1784   34.8166 H   0  0  0  0  0  0  0  0  0  0  0  0
   72.2127   43.8404   35.2002 H   0  0  0  0  0  0  0  0  0  0  0  0
   73.9527   42.1989   35.9391 H   0  0  0  0  0  0  0  0  0  0  0  0
   73.3018   43.1568   37.2554 H   0  0  0  0  0  0  0  0  0  0  0  0
  1  2  1  0  0  0  0
  1 21  1  0  0  0  0
  1 22  1  0  0  0  0
  2  3  1  0  0  0  0
  2 12  2  0  0  0  0
  3  9  2  0  0  0  0
  3  4  1  0  0  0  0
  4  5  2  0  0  0  0
  4  6  1  0  0  0  0
  6  7  1  0  0  0  0
 13  6  1  0  0  0  0
  7  8  2  0  0  0  0
  7  9  1  0  0  0  0
  9 10  1  0  0  0  0
 10 23  1  0  0  0  0
 10 11  2  0  0  0  0
 11 12  1  0  0  0  0
 11 24  1  0  0  0  0
 12 25  1  0  0  0  0
 13 26  1  0  0  0  0
 13 14  1  0  0  0  0
 13 20  1  0  0  0  0
 14 15  2  0  0  0  0
 14 16  1  0  0  0  0
 16 27  1  0  0  0  0
 16 17  1  0  0  0  0
 17 18  2  0  0  0  0
 17 19  1  0  0  0  0
 19 28  1  0  0  0  0
 19 29  1  0  0  0  0
 19 20  1  0  0  0  0
 20 30  1  0  0  0  0
 20 31  1  0  0  0  0
M  ZZC   1 n1
M  ZZC   2 c1
M  ZZC   3 c2
M  ZZC   4 c3
M  ZZC   5 o1
M  ZZC   6 n2
M  ZZC   7 c4
M  ZZC   8 o2
M  ZZC   9 c5
M  ZZC  10 c6
M  ZZC  11 c7
M  ZZC  12 c8
M  ZZC  13 c9
M  ZZC  14 c10
M  ZZC  15 o3
M  ZZC  16 n3
M  ZZC  17 c11
M  ZZC  18 o4
M  ZZC  19 c12
M  ZZC  20 c13
M  ZZC  21 h11
M  ZZC  22 h12
M  ZZC  23 h61
M  ZZC  24 h71
M  ZZC  25 h81
M  ZZC  26 h91
M  ZZC  27 h31
M  ZZC  28 h121
M  ZZC  29 h122
M  ZZC  30 h131
M  ZZC  31 h132
M  ZZM   1 40
M  ZZI   1 224
M  ZZM   2 37
M  ZZI   2 124
M  ZZM   3 37
M  ZZI   3 124
M  ZZM   4 3
M  ZZI   4 121
M  ZZM   5 7
M  ZZI   5 81
M  ZZM   6 10
M  ZZI   6 192
M  ZZM   7 3
M  ZZI   7 121
M  ZZM   8 7
M  ZZI   8 81
M  ZZM   9 37
M  ZZI   9 124
M  ZZM  10 37
M  ZZI  10 125
M  ZZM  11 37
M  ZZI  11 125
M  ZZM  12 37
M  ZZI  12 125
M  ZZM  13 1
M  ZZI  13 113
M  ZZM  14 3
M  ZZI  14 121
M  ZZM  15 7
M  ZZI  15 81
M  ZZM  16 10
M  ZZI  16 191
M  ZZM  17 3
M  ZZI  17 121
M  ZZM  18 7
M  ZZI  18 81
M  ZZM  19 1
M  ZZI  19 112
M  ZZM  20 1
M  ZZI  20 112
M  ZZM  21 28
M  ZZI  21 11
M  ZZM  22 28
M  ZZI  22 11
M  ZZM  23 5
M  ZZI  23 1
M  ZZM  24 5
M  ZZI  24 1
M  ZZM  25 5
M  ZZI  25 1
M  ZZM  26 5
M  ZZI  26 1
M  ZZM  27 28
M  ZZI  27 11
M  ZZM  28 5
M  ZZI  28 1
M  ZZM  29 5
M  ZZI  29 1
M  ZZM  30 5
M  ZZI  30 1
M  ZZM  31 5
M  ZZI  31 1
M  END
> <IX>
1

> <NAME>
Cereblon_4QNQ_49.pdb

> <Score>
-19.557428

> <Natom>
31

> <Nflex>
1

> <Hbond>
-4.88341

> <Hphob>
-3.484395

> <VwInt>
-24.166775

> <Dsolv>
15.77963

> <SolEl>
9.159978

> <Eintl>
1.364355

> <RecConf>
ND

> <projPath>
Cereblon_maps/

> <NAME_>
Cereblon_4QNQ_49.pdb

$$$$
