Cereblon_3MXF_34.pdb
  MOLSOFT 04032206223D

 30 32  0  0  1  0  0  0  0  0999 V2000
   75.6118   37.8892   39.7138 C   0  0  0  0  0  0  0  0  0  0  0  0
   74.9386   39.0028   39.2402 C   0  0  0  0  0  0  0  0  0  0  0  0
   75.2700   40.2469   39.6968 C   0  0  0  0  0  0  0  0  0  0  0  0
   74.3997   41.2237   39.0406 C   0  0  0  0  0  0  0  0  0  0  0  0
   74.4187   42.4161   39.3060 O   0  0  0  0  0  0  0  0  0  0  0  0
   73.6184   40.5207   38.1352 N   0  0  0  0  0  0  0  0  0  0  0  0
   72.5877   41.0624   37.2339 C   0  0  1  0  0  0  0  0  0  0  0  0
   71.2618   41.2673   37.9653 C   0  0  0  0  0  0  0  0  0  0  0  0
   70.9020   40.5784   38.9090 O   0  0  0  0  0  0  0  0  0  0  0  0
   70.4199   42.2176   37.4351 N   0  0  0  0  0  0  0  0  0  0  0  0
   70.6308   43.0639   36.3797 C   0  0  0  0  0  0  0  0  0  0  0  0
   69.8183   43.9283   36.0886 O   0  0  0  0  0  0  0  0  0  0  0  0
   71.9022   42.8332   35.6036 C   0  0  0  0  0  0  0  0  0  0  0  0
   73.0171   42.3385   36.5111 C   0  0  0  0  0  0  0  0  0  0  0  0
   73.8360   39.0879   38.2464 C   0  0  0  0  0  0  0  0  0  0  0  0
   76.2759   40.4723   40.6190 C   0  0  0  0  0  0  0  0  0  0  0  0
   76.9573   39.3612   41.0930 C   0  0  0  0  0  0  0  0  0  0  0  0
   76.6267   38.0853   40.6437 C   0  0  0  0  0  0  0  0  0  0  0  0
   75.3615   36.8912   39.3672 H   0  0  0  0  0  0  0  0  0  0  0  0
   72.4020   40.2939   36.4743 H   0  0  0  0  0  0  0  0  0  0  0  0
   69.5430   42.3512   37.9172 H   0  0  0  0  0  0  0  0  0  0  0  0
   71.6953   42.1153   34.8027 H   0  0  0  0  0  0  0  0  0  0  0  0
   72.1948   43.7804   35.1460 H   0  0  0  0  0  0  0  0  0  0  0  0
   73.9222   42.1539   35.9235 H   0  0  0  0  0  0  0  0  0  0  0  0
   73.2662   43.1293   37.2237 H   0  0  0  0  0  0  0  0  0  0  0  0
   74.1251   38.6801   37.2721 H   0  0  0  0  0  0  0  0  0  0  0  0
   72.9244   38.6066   38.6168 H   0  0  0  0  0  0  0  0  0  0  0  0
   76.5314   41.4733   40.9514 H   0  0  0  0  0  0  0  0  0  0  0  0
   77.7547   39.4898   41.8187 H   0  0  0  0  0  0  0  0  0  0  0  0
   77.1730   37.2287   41.0256 H   0  0  0  0  0  0  0  0  0  0  0  0
  1 19  1  0  0  0  0
  1 18  2  0  0  0  0
  1  2  1  0  0  0  0
  2  3  2  0  0  0  0
  2 15  1  0  0  0  0
  3 16  1  0  0  0  0
  3  4  1  0  0  0  0
  4  6  1  0  0  0  0
  4  5  2  0  0  0  0
  6 15  1  0  0  0  0
  7  6  1  0  0  0  0
  7 20  1  0  0  0  0
  7  8  1  0  0  0  0
  7 14  1  0  0  0  0
  8  9  2  0  0  0  0
  8 10  1  0  0  0  0
 10 21  1  0  0  0  0
 10 11  1  0  0  0  0
 11 12  2  0  0  0  0
 11 13  1  0  0  0  0
 13 22  1  0  0  0  0
 13 23  1  0  0  0  0
 13 14  1  0  0  0  0
 14 24  1  0  0  0  0
 14 25  1  0  0  0  0
 15 26  1  0  0  0  0
 15 27  1  0  0  0  0
 16 17  2  0  0  0  0
 16 28  1  0  0  0  0
 17 18  1  0  0  0  0
 17 29  1  0  0  0  0
 18 30  1  0  0  0  0
M  ZZC   1 c1
M  ZZC   2 c2
M  ZZC   3 c3
M  ZZC   4 c4
M  ZZC   5 o1
M  ZZC   6 n1
M  ZZC   7 c5
M  ZZC   8 c6
M  ZZC   9 o2
M  ZZC  10 n2
M  ZZC  11 c7
M  ZZC  12 o3
M  ZZC  13 c8
M  ZZC  14 c9
M  ZZC  15 c10
M  ZZC  16 c11
M  ZZC  17 c12
M  ZZC  18 c13
M  ZZC  19 h11
M  ZZC  20 h51
M  ZZC  21 h21
M  ZZC  22 h81
M  ZZC  23 h82
M  ZZC  24 h91
M  ZZC  25 h92
M  ZZC  26 h101
M  ZZC  27 h102
M  ZZC  28 h111
M  ZZC  29 h121
M  ZZC  30 h131
M  ZZM   1 37
M  ZZI   1 125
M  ZZM   2 37
M  ZZI   2 124
M  ZZM   3 37
M  ZZI   3 124
M  ZZM   4 3
M  ZZI   4 121
M  ZZM   5 7
M  ZZI   5 81
M  ZZM   6 10
M  ZZI   6 192
M  ZZM   7 1
M  ZZI   7 113
M  ZZM   8 3
M  ZZI   8 121
M  ZZM   9 7
M  ZZI   9 81
M  ZZM  10 10
M  ZZI  10 191
M  ZZM  11 3
M  ZZI  11 121
M  ZZM  12 7
M  ZZI  12 81
M  ZZM  13 1
M  ZZI  13 112
M  ZZM  14 1
M  ZZI  14 112
M  ZZM  15 1
M  ZZI  15 112
M  ZZM  16 37
M  ZZI  16 125
M  ZZM  17 37
M  ZZI  17 125
M  ZZM  18 37
M  ZZI  18 125
M  ZZM  19 5
M  ZZI  19 1
M  ZZM  20 5
M  ZZI  20 1
M  ZZM  21 28
M  ZZI  21 11
M  ZZM  22 5
M  ZZI  22 1
M  ZZM  23 5
M  ZZI  23 1
M  ZZM  24 5
M  ZZI  24 1
M  ZZM  25 5
M  ZZI  25 1
M  ZZM  26 5
M  ZZI  26 1
M  ZZM  27 5
M  ZZI  27 1
M  ZZM  28 5
M  ZZI  28 1
M  ZZM  29 5
M  ZZI  29 1
M  ZZM  30 5
M  ZZI  30 1
M  END
> <IX>
1

> <NAME>
Cereblon_3MXF_34.pdb

> <Score>
-20.612265

> <Natom>
30

> <Nflex>
1

> <Hbond>
-4.69522

> <Hphob>
-3.586101

> <VwInt>
-21.810481

> <Dsolv>
13.204953

> <SolEl>
5.939371

> <Eintl>
1.760185

> <RecConf>
ND

> <projPath>
Cereblon_maps/

> <NAME_>
Cereblon_3MXF_34.pdb

$$$$
