Cereblon_3LQ5_10.pdb
  MOLSOFT 04032206213D

 29 31  0  0  1  0  0  0  0  0999 V2000
   79.0004   42.4909   42.6737 C   0  0  0  0  0  0  0  0  0  0  0  0
   78.1830   42.1953   41.5970 C   0  0  0  0  0  0  0  0  0  0  0  0
   77.2653   41.0770   41.4110 C   0  0  0  0  0  0  0  0  0  0  0  0
   77.0860   40.2150   42.2575 O   0  0  0  0  0  0  0  0  0  0  0  0
   76.7251   41.2194   40.1457 N   0  0  0  0  0  0  0  0  0  0  0  0
   77.2216   42.3466   39.5229 C   0  0  0  0  0  0  0  0  0  0  0  0
   76.9861   42.7657   38.3970 O   0  0  0  0  0  0  0  0  0  0  0  0
   78.1563   42.9580   40.4683 C   0  0  0  0  0  0  0  0  0  0  0  0
   78.9552   44.0741   40.3267 C   0  0  0  0  0  0  0  0  0  0  0  0
   79.7979   44.3833   41.3886 C   0  0  0  0  0  0  0  0  0  0  0  0
   79.8199   43.6058   42.5471 C   0  0  0  0  0  0  0  0  0  0  0  0
   75.7165   40.3656   39.5126 C   0  0  2  0  0  0  0  0  0  0  0  0
   74.3374   40.9352   39.8018 C   0  0  0  0  0  0  0  0  0  0  0  0
   74.1510   42.1213   40.0174 O   0  0  0  0  0  0  0  0  0  0  0  0
   73.2862   40.0541   39.7256 N   0  0  0  0  0  0  0  0  0  0  0  0
   73.3231   38.7086   39.4538 C   0  0  0  0  0  0  0  0  0  0  0  0
   72.3068   38.0361   39.3948 O   0  0  0  0  0  0  0  0  0  0  0  0
   74.6876   38.1266   39.1775 C   0  0  0  0  0  0  0  0  0  0  0  0
   75.7700   38.8952   39.9142 C   0  0  0  0  0  0  0  0  0  0  0  0
   79.0098   41.8764   43.5697 H   0  0  0  0  0  0  0  0  0  0  0  0
   78.9256   44.6753   39.4256 H   0  0  0  0  0  0  0  0  0  0  0  0
   80.4466   45.2488   41.3191 H   0  0  0  0  0  0  0  0  0  0  0  0
   80.4858   43.8750   43.3619 H   0  0  0  0  0  0  0  0  0  0  0  0
   75.8564   40.4529   38.4333 H   0  0  0  0  0  0  0  0  0  0  0  0
   72.3679   40.4479   39.8883 H   0  0  0  0  0  0  0  0  0  0  0  0
   74.6926   37.0813   39.5018 H   0  0  0  0  0  0  0  0  0  0  0  0
   74.8488   38.1487   38.0954 H   0  0  0  0  0  0  0  0  0  0  0  0
   76.7550   38.4733   39.6903 H   0  0  0  0  0  0  0  0  0  0  0  0
   75.6071   38.7761   40.9888 H   0  0  0  0  0  0  0  0  0  0  0  0
  1 20  1  0  0  0  0
  1  2  1  0  0  0  0
  1 11  2  0  0  0  0
  2  3  1  0  0  0  0
  2  8  2  0  0  0  0
  3  4  2  0  0  0  0
  3  5  1  0  0  0  0
  5  6  1  0  0  0  0
 12  5  1  0  0  0  0
  6  7  2  0  0  0  0
  6  8  1  0  0  0  0
  8  9  1  0  0  0  0
  9 21  1  0  0  0  0
  9 10  2  0  0  0  0
 10 22  1  0  0  0  0
 10 11  1  0  0  0  0
 11 23  1  0  0  0  0
 12 24  1  0  0  0  0
 12 13  1  0  0  0  0
 12 19  1  0  0  0  0
 13 14  2  0  0  0  0
 13 15  1  0  0  0  0
 15 25  1  0  0  0  0
 15 16  1  0  0  0  0
 16 17  2  0  0  0  0
 16 18  1  0  0  0  0
 18 26  1  0  0  0  0
 18 27  1  0  0  0  0
 18 19  1  0  0  0  0
 19 28  1  0  0  0  0
 19 29  1  0  0  0  0
M  ZZC   1 c1
M  ZZC   2 c2
M  ZZC   3 c3
M  ZZC   4 o1
M  ZZC   5 n1
M  ZZC   6 c4
M  ZZC   7 o2
M  ZZC   8 c5
M  ZZC   9 c6
M  ZZC  10 c7
M  ZZC  11 c8
M  ZZC  12 c9
M  ZZC  13 c10
M  ZZC  14 o3
M  ZZC  15 n2
M  ZZC  16 c11
M  ZZC  17 o4
M  ZZC  18 c12
M  ZZC  19 c13
M  ZZC  20 h11
M  ZZC  21 h61
M  ZZC  22 h71
M  ZZC  23 h81
M  ZZC  24 h91
M  ZZC  25 h21
M  ZZC  26 h121
M  ZZC  27 h122
M  ZZC  28 h131
M  ZZC  29 h132
M  ZZM   1 37
M  ZZI   1 125
M  ZZM   2 37
M  ZZI   2 124
M  ZZM   3 3
M  ZZI   3 121
M  ZZM   4 7
M  ZZI   4 81
M  ZZM   5 10
M  ZZI   5 192
M  ZZM   6 3
M  ZZI   6 121
M  ZZM   7 7
M  ZZI   7 81
M  ZZM   8 37
M  ZZI   8 124
M  ZZM   9 37
M  ZZI   9 125
M  ZZM  10 37
M  ZZI  10 125
M  ZZM  11 37
M  ZZI  11 125
M  ZZM  12 1
M  ZZI  12 113
M  ZZM  13 3
M  ZZI  13 121
M  ZZM  14 7
M  ZZI  14 81
M  ZZM  15 10
M  ZZI  15 191
M  ZZM  16 3
M  ZZI  16 121
M  ZZM  17 7
M  ZZI  17 81
M  ZZM  18 1
M  ZZI  18 112
M  ZZM  19 1
M  ZZI  19 112
M  ZZM  20 5
M  ZZI  20 1
M  ZZM  21 5
M  ZZI  21 1
M  ZZM  22 5
M  ZZI  22 1
M  ZZM  23 5
M  ZZI  23 1
M  ZZM  24 5
M  ZZI  24 1
M  ZZM  25 28
M  ZZI  25 11
M  ZZM  26 5
M  ZZI  26 1
M  ZZM  27 5
M  ZZI  27 1
M  ZZM  28 5
M  ZZI  28 1
M  ZZM  29 5
M  ZZI  29 1
M  END
> <IX>
1

> <NAME>
Cereblon_3LQ5_10.pdb

> <Score>
-19.454563

> <Natom>
29

> <Nflex>
1

> <Hbond>
-3.367336

> <Hphob>
-3.584178

> <VwInt>
-22.702918

> <Dsolv>
12.018727

> <SolEl>
5.552253

> <Eintl>
1.484303

> <RecConf>
ND

> <projPath>
Cereblon_maps/

> <NAME_>
Cereblon_3LQ5_10.pdb

$$$$
