Cereblon_5TOB_18.pdb
  MOLSOFT 04032206263D

 29 31  0  0  1  0  0  0  0  0999 V2000
   79.0022   42.4883   42.6718 C   0  0  0  0  0  0  0  0  0  0  0  0
   78.1834   42.1937   41.5961 C   0  0  0  0  0  0  0  0  0  0  0  0
   77.2662   41.0757   41.4106 C   0  0  0  0  0  0  0  0  0  0  0  0
   77.0861   40.2136   42.2569 O   0  0  0  0  0  0  0  0  0  0  0  0
   76.7244   41.2189   40.1463 N   0  0  0  0  0  0  0  0  0  0  0  0
   77.2217   42.3454   39.5226 C   0  0  0  0  0  0  0  0  0  0  0  0
   76.9871   42.7643   38.3962 O   0  0  0  0  0  0  0  0  0  0  0  0
   78.1563   42.9568   40.4677 C   0  0  0  0  0  0  0  0  0  0  0  0
   78.9555   44.0729   40.3259 C   0  0  0  0  0  0  0  0  0  0  0  0
   79.7974   44.3830   41.3881 C   0  0  0  0  0  0  0  0  0  0  0  0
   79.8214   43.6040   42.5456 C   0  0  0  0  0  0  0  0  0  0  0  0
   75.7163   40.3647   39.5130 C   0  0  2  0  0  0  0  0  0  0  0  0
   74.3364   40.9340   39.8014 C   0  0  0  0  0  0  0  0  0  0  0  0
   74.1493   42.1201   40.0160 O   0  0  0  0  0  0  0  0  0  0  0  0
   73.2859   40.0523   39.7246 N   0  0  0  0  0  0  0  0  0  0  0  0
   73.3235   38.7071   39.4508 C   0  0  0  0  0  0  0  0  0  0  0  0
   72.3072   38.0347   39.3911 O   0  0  0  0  0  0  0  0  0  0  0  0
   74.6882   38.1254   39.1748 C   0  0  0  0  0  0  0  0  0  0  0  0
   75.7701   38.8938   39.9133 C   0  0  0  0  0  0  0  0  0  0  0  0
   79.0126   41.8727   43.5671 H   0  0  0  0  0  0  0  0  0  0  0  0
   78.9257   44.6746   39.4252 H   0  0  0  0  0  0  0  0  0  0  0  0
   80.4459   45.2486   41.3181 H   0  0  0  0  0  0  0  0  0  0  0  0
   80.4890   43.8716   43.3597 H   0  0  0  0  0  0  0  0  0  0  0  0
   75.8557   40.4536   38.4335 H   0  0  0  0  0  0  0  0  0  0  0  0
   72.3674   40.4461   39.8869 H   0  0  0  0  0  0  0  0  0  0  0  0
   74.6932   37.0796   39.4979 H   0  0  0  0  0  0  0  0  0  0  0  0
   74.8506   38.1486   38.0928 H   0  0  0  0  0  0  0  0  0  0  0  0
   75.6060   38.7730   40.9879 H   0  0  0  0  0  0  0  0  0  0  0  0
   76.7553   38.4716   39.6902 H   0  0  0  0  0  0  0  0  0  0  0  0
  1 20  1  0  0  0  0
  1  2  1  0  0  0  0
  1 11  2  0  0  0  0
  2  3  1  0  0  0  0
  2  8  2  0  0  0  0
  3  4  2  0  0  0  0
  3  5  1  0  0  0  0
  5  6  1  0  0  0  0
 12  5  1  0  0  0  0
  6  7  2  0  0  0  0
  6  8  1  0  0  0  0
  8  9  1  0  0  0  0
  9 21  1  0  0  0  0
  9 10  2  0  0  0  0
 10 22  1  0  0  0  0
 10 11  1  0  0  0  0
 11 23  1  0  0  0  0
 12 24  1  0  0  0  0
 12 13  1  0  0  0  0
 12 19  1  0  0  0  0
 13 14  2  0  0  0  0
 13 15  1  0  0  0  0
 15 25  1  0  0  0  0
 15 16  1  0  0  0  0
 16 17  2  0  0  0  0
 16 18  1  0  0  0  0
 18 26  1  0  0  0  0
 18 27  1  0  0  0  0
 18 19  1  0  0  0  0
 19 28  1  0  0  0  0
 19 29  1  0  0  0  0
M  ZZC   1 c1
M  ZZC   2 c2
M  ZZC   3 c3
M  ZZC   4 o1
M  ZZC   5 n1
M  ZZC   6 c4
M  ZZC   7 o2
M  ZZC   8 c5
M  ZZC   9 c6
M  ZZC  10 c7
M  ZZC  11 c8
M  ZZC  12 c9
M  ZZC  13 c10
M  ZZC  14 o3
M  ZZC  15 n2
M  ZZC  16 c11
M  ZZC  17 o4
M  ZZC  18 c12
M  ZZC  19 c13
M  ZZC  20 h11
M  ZZC  21 h61
M  ZZC  22 h71
M  ZZC  23 h81
M  ZZC  24 h91
M  ZZC  25 h21
M  ZZC  26 h121
M  ZZC  27 h122
M  ZZC  28 h131
M  ZZC  29 h132
M  ZZM   1 37
M  ZZI   1 125
M  ZZM   2 37
M  ZZI   2 124
M  ZZM   3 3
M  ZZI   3 121
M  ZZM   4 7
M  ZZI   4 81
M  ZZM   5 10
M  ZZI   5 192
M  ZZM   6 3
M  ZZI   6 121
M  ZZM   7 7
M  ZZI   7 81
M  ZZM   8 37
M  ZZI   8 124
M  ZZM   9 37
M  ZZI   9 125
M  ZZM  10 37
M  ZZI  10 125
M  ZZM  11 37
M  ZZI  11 125
M  ZZM  12 1
M  ZZI  12 113
M  ZZM  13 3
M  ZZI  13 121
M  ZZM  14 7
M  ZZI  14 81
M  ZZM  15 10
M  ZZI  15 191
M  ZZM  16 3
M  ZZI  16 121
M  ZZM  17 7
M  ZZI  17 81
M  ZZM  18 1
M  ZZI  18 112
M  ZZM  19 1
M  ZZI  19 112
M  ZZM  20 5
M  ZZI  20 1
M  ZZM  21 5
M  ZZI  21 1
M  ZZM  22 5
M  ZZI  22 1
M  ZZM  23 5
M  ZZI  23 1
M  ZZM  24 5
M  ZZI  24 1
M  ZZM  25 28
M  ZZI  25 11
M  ZZM  26 5
M  ZZI  26 1
M  ZZM  27 5
M  ZZI  27 1
M  ZZM  28 5
M  ZZI  28 1
M  ZZM  29 5
M  ZZI  29 1
M  END
> <IX>
1

> <NAME>
Cereblon_5TOB_18.pdb

> <Score>
-19.235379

> <Natom>
29

> <Nflex>
1

> <Hbond>
-3.300482

> <Hphob>
-3.537139

> <VwInt>
-22.827387

> <Dsolv>
12.033639

> <SolEl>
5.761864

> <Eintl>
1.473417

> <RecConf>
ND

> <projPath>
Cereblon_maps/

> <NAME_>
Cereblon_5TOB_18.pdb

$$$$
