Cereblon_3K6P_19.pdb
  MOLSOFT 04032206213D

 31 33  0  0  1  0  0  0  0  0999 V2000
   81.5297   52.9691   19.9313 N   0  0  0  0  0  0  0  0  0  0  0  0
   81.7340   54.3499   19.7977 C   0  0  0  0  0  0  0  0  0  0  0  0
   80.9628   55.2778   20.4811 C   0  0  0  0  0  0  0  0  0  0  0  0
   79.8325   55.0682   21.3851 C   0  0  0  0  0  0  0  0  0  0  0  0
   79.3424   53.9779   21.6453 O   0  0  0  0  0  0  0  0  0  0  0  0
   79.4703   56.3173   21.8456 N   0  0  0  0  0  0  0  0  0  0  0  0
   80.2245   57.3051   21.2505 C   0  0  0  0  0  0  0  0  0  0  0  0
   80.1550   58.5196   21.3712 O   0  0  0  0  0  0  0  0  0  0  0  0
   81.2027   56.6172   20.4095 C   0  0  0  0  0  0  0  0  0  0  0  0
   82.2515   57.1390   19.6764 C   0  0  0  0  0  0  0  0  0  0  0  0
   83.0657   56.2268   19.0170 C   0  0  0  0  0  0  0  0  0  0  0  0
   82.8183   54.8558   19.0896 C   0  0  0  0  0  0  0  0  0  0  0  0
   78.4299   56.5338   22.8522 C   0  0  1  0  0  0  0  0  0  0  0  0
   79.0107   57.1584   24.1170 C   0  0  0  0  0  0  0  0  0  0  0  0
   80.2011   57.1696   24.3914 O   0  0  0  0  0  0  0  0  0  0  0  0
   78.0846   57.6963   24.9786 N   0  0  0  0  0  0  0  0  0  0  0  0
   76.7396   57.8845   24.7684 C   0  0  0  0  0  0  0  0  0  0  0  0
   76.0238   58.4132   25.6034 O   0  0  0  0  0  0  0  0  0  0  0  0
   76.1899   57.3633   23.4636 C   0  0  0  0  0  0  0  0  0  0  0  0
   77.2530   57.3668   22.3731 C   0  0  0  0  0  0  0  0  0  0  0  0
   82.0320   52.3654   19.2856 H   0  0  0  0  0  0  0  0  0  0  0  0
   80.5710   52.6926   20.1368 H   0  0  0  0  0  0  0  0  0  0  0  0
   82.4448   58.2071   19.6402 H   0  0  0  0  0  0  0  0  0  0  0  0
   83.9129   56.5860   18.4398 H   0  0  0  0  0  0  0  0  0  0  0  0
   83.4792   54.1715   18.5664 H   0  0  0  0  0  0  0  0  0  0  0  0
   78.0574   55.5471   23.1383 H   0  0  0  0  0  0  0  0  0  0  0  0
   78.4514   58.0620   25.8478 H   0  0  0  0  0  0  0  0  0  0  0  0
   75.8059   56.3541   23.6431 H   0  0  0  0  0  0  0  0  0  0  0  0
   75.3464   57.9930   23.1693 H   0  0  0  0  0  0  0  0  0  0  0  0
   76.8450   56.9637   21.4408 H   0  0  0  0  0  0  0  0  0  0  0  0
   77.5683   58.3953   22.1649 H   0  0  0  0  0  0  0  0  0  0  0  0
  1  2  1  0  0  0  0
  1 21  1  0  0  0  0
  1 22  1  0  0  0  0
  2  3  1  0  0  0  0
  2 12  2  0  0  0  0
  3  9  2  0  0  0  0
  3  4  1  0  0  0  0
  4  5  2  0  0  0  0
  4  6  1  0  0  0  0
  6  7  1  0  0  0  0
 13  6  1  0  0  0  0
  7  8  2  0  0  0  0
  7  9  1  0  0  0  0
  9 10  1  0  0  0  0
 10 23  1  0  0  0  0
 10 11  2  0  0  0  0
 11 12  1  0  0  0  0
 11 24  1  0  0  0  0
 12 25  1  0  0  0  0
 13 26  1  0  0  0  0
 13 14  1  0  0  0  0
 13 20  1  0  0  0  0
 14 15  2  0  0  0  0
 14 16  1  0  0  0  0
 16 27  1  0  0  0  0
 16 17  1  0  0  0  0
 17 18  2  0  0  0  0
 17 19  1  0  0  0  0
 19 28  1  0  0  0  0
 19 29  1  0  0  0  0
 19 20  1  0  0  0  0
 20 30  1  0  0  0  0
 20 31  1  0  0  0  0
M  ZZC   1 n1
M  ZZC   2 c1
M  ZZC   3 c2
M  ZZC   4 c3
M  ZZC   5 o1
M  ZZC   6 n2
M  ZZC   7 c4
M  ZZC   8 o2
M  ZZC   9 c5
M  ZZC  10 c6
M  ZZC  11 c7
M  ZZC  12 c8
M  ZZC  13 c9
M  ZZC  14 c10
M  ZZC  15 o3
M  ZZC  16 n3
M  ZZC  17 c11
M  ZZC  18 o4
M  ZZC  19 c12
M  ZZC  20 c13
M  ZZC  21 h11
M  ZZC  22 h12
M  ZZC  23 h61
M  ZZC  24 h71
M  ZZC  25 h81
M  ZZC  26 h91
M  ZZC  27 h31
M  ZZC  28 h121
M  ZZC  29 h122
M  ZZC  30 h131
M  ZZC  31 h132
M  ZZM   1 40
M  ZZI   1 224
M  ZZM   2 37
M  ZZI   2 124
M  ZZM   3 37
M  ZZI   3 124
M  ZZM   4 3
M  ZZI   4 121
M  ZZM   5 7
M  ZZI   5 81
M  ZZM   6 10
M  ZZI   6 192
M  ZZM   7 3
M  ZZI   7 121
M  ZZM   8 7
M  ZZI   8 81
M  ZZM   9 37
M  ZZI   9 124
M  ZZM  10 37
M  ZZI  10 125
M  ZZM  11 37
M  ZZI  11 125
M  ZZM  12 37
M  ZZI  12 125
M  ZZM  13 1
M  ZZI  13 113
M  ZZM  14 3
M  ZZI  14 121
M  ZZM  15 7
M  ZZI  15 81
M  ZZM  16 10
M  ZZI  16 191
M  ZZM  17 3
M  ZZI  17 121
M  ZZM  18 7
M  ZZI  18 81
M  ZZM  19 1
M  ZZI  19 112
M  ZZM  20 1
M  ZZI  20 112
M  ZZM  21 28
M  ZZI  21 11
M  ZZM  22 28
M  ZZI  22 11
M  ZZM  23 5
M  ZZI  23 1
M  ZZM  24 5
M  ZZI  24 1
M  ZZM  25 5
M  ZZI  25 1
M  ZZM  26 5
M  ZZI  26 1
M  ZZM  27 28
M  ZZI  27 11
M  ZZM  28 5
M  ZZI  28 1
M  ZZM  29 5
M  ZZI  29 1
M  ZZM  30 5
M  ZZI  30 1
M  ZZM  31 5
M  ZZI  31 1
M  END
> <IX>
1

> <NAME>
Cereblon_3K6P_19.pdb

> <Score>
-20.91166

> <Natom>
31

> <Nflex>
1

> <Hbond>
-3.840801

> <Hphob>
-3.452646

> <VwInt>
-24.143794

> <Dsolv>
13.142118

> <SolEl>
5.141288

> <Eintl>
2.35466

> <RecConf>
ND

> <projPath>
Cereblon_maps/

> <NAME_>
Cereblon_3K6P_19.pdb

$$$$
