Cereblon_1HWK_8.pdb
  MOLSOFT 04032206193D

 31 33  0  0  1  0  0  0  0  0999 V2000
   76.8769   41.5663   40.9105 N   0  0  0  0  0  0  0  0  0  0  0  0
   76.4330   40.3155   40.4565 C   0  0  0  0  0  0  0  0  0  0  0  0
   75.3418   40.1704   39.6117 C   0  0  0  0  0  0  0  0  0  0  0  0
   74.4883   41.1850   38.9902 C   0  0  0  0  0  0  0  0  0  0  0  0
   74.5453   42.3702   39.2866 O   0  0  0  0  0  0  0  0  0  0  0  0
   73.6498   40.5110   38.1184 N   0  0  0  0  0  0  0  0  0  0  0  0
   73.8284   39.1476   38.2342 C   0  0  0  0  0  0  0  0  0  0  0  0
   73.2365   38.2358   37.6748 O   0  0  0  0  0  0  0  0  0  0  0  0
   74.9151   38.9487   39.1888 C   0  0  0  0  0  0  0  0  0  0  0  0
   75.4923   37.7710   39.6249 C   0  0  0  0  0  0  0  0  0  0  0  0
   76.5460   37.8865   40.5212 C   0  0  0  0  0  0  0  0  0  0  0  0
   77.0008   39.1382   40.9342 C   0  0  0  0  0  0  0  0  0  0  0  0
   72.6224   41.0920   37.2412 C   0  0  1  0  0  0  0  0  0  0  0  0
   71.3241   41.3104   38.0101 C   0  0  0  0  0  0  0  0  0  0  0  0
   71.0124   40.6649   39.0002 O   0  0  0  0  0  0  0  0  0  0  0  0
   70.4562   42.2292   37.4664 N   0  0  0  0  0  0  0  0  0  0  0  0
   70.6516   43.0768   36.4079 C   0  0  0  0  0  0  0  0  0  0  0  0
   69.8216   43.9232   36.1134 O   0  0  0  0  0  0  0  0  0  0  0  0
   71.9327   42.8790   35.6365 C   0  0  0  0  0  0  0  0  0  0  0  0
   73.0526   42.3755   36.5345 C   0  0  0  0  0  0  0  0  0  0  0  0
   77.8150   41.6237   41.3007 H   0  0  0  0  0  0  0  0  0  0  0  0
   76.5299   42.3944   40.4265 H   0  0  0  0  0  0  0  0  0  0  0  0
   75.1403   36.8019   39.2835 H   0  0  0  0  0  0  0  0  0  0  0  0
   77.0260   36.9901   40.9020 H   0  0  0  0  0  0  0  0  0  0  0  0
   77.8247   39.1919   41.6390 H   0  0  0  0  0  0  0  0  0  0  0  0
   72.3883   40.3399   36.4786 H   0  0  0  0  0  0  0  0  0  0  0  0
   69.5827   42.3572   37.9559 H   0  0  0  0  0  0  0  0  0  0  0  0
   71.7383   42.1786   34.8172 H   0  0  0  0  0  0  0  0  0  0  0  0
   72.2160   43.8406   35.2037 H   0  0  0  0  0  0  0  0  0  0  0  0
   73.9552   42.1975   35.9412 H   0  0  0  0  0  0  0  0  0  0  0  0
   73.3042   43.1561   37.2573 H   0  0  0  0  0  0  0  0  0  0  0  0
  1  2  1  0  0  0  0
  1 21  1  0  0  0  0
  1 22  1  0  0  0  0
  2  3  1  0  0  0  0
  2 12  2  0  0  0  0
  3  9  2  0  0  0  0
  3  4  1  0  0  0  0
  4  5  2  0  0  0  0
  4  6  1  0  0  0  0
  6  7  1  0  0  0  0
 13  6  1  0  0  0  0
  7  8  2  0  0  0  0
  7  9  1  0  0  0  0
  9 10  1  0  0  0  0
 10 23  1  0  0  0  0
 10 11  2  0  0  0  0
 11 12  1  0  0  0  0
 11 24  1  0  0  0  0
 12 25  1  0  0  0  0
 13 26  1  0  0  0  0
 13 14  1  0  0  0  0
 13 20  1  0  0  0  0
 14 15  2  0  0  0  0
 14 16  1  0  0  0  0
 16 27  1  0  0  0  0
 16 17  1  0  0  0  0
 17 18  2  0  0  0  0
 17 19  1  0  0  0  0
 19 28  1  0  0  0  0
 19 29  1  0  0  0  0
 19 20  1  0  0  0  0
 20 30  1  0  0  0  0
 20 31  1  0  0  0  0
M  ZZC   1 n1
M  ZZC   2 c1
M  ZZC   3 c2
M  ZZC   4 c3
M  ZZC   5 o1
M  ZZC   6 n2
M  ZZC   7 c4
M  ZZC   8 o2
M  ZZC   9 c5
M  ZZC  10 c6
M  ZZC  11 c7
M  ZZC  12 c8
M  ZZC  13 c9
M  ZZC  14 c10
M  ZZC  15 o3
M  ZZC  16 n3
M  ZZC  17 c11
M  ZZC  18 o4
M  ZZC  19 c12
M  ZZC  20 c13
M  ZZC  21 h11
M  ZZC  22 h12
M  ZZC  23 h61
M  ZZC  24 h71
M  ZZC  25 h81
M  ZZC  26 h91
M  ZZC  27 h31
M  ZZC  28 h121
M  ZZC  29 h122
M  ZZC  30 h131
M  ZZC  31 h132
M  ZZM   1 40
M  ZZI   1 224
M  ZZM   2 37
M  ZZI   2 124
M  ZZM   3 37
M  ZZI   3 124
M  ZZM   4 3
M  ZZI   4 121
M  ZZM   5 7
M  ZZI   5 81
M  ZZM   6 10
M  ZZI   6 192
M  ZZM   7 3
M  ZZI   7 121
M  ZZM   8 7
M  ZZI   8 81
M  ZZM   9 37
M  ZZI   9 124
M  ZZM  10 37
M  ZZI  10 125
M  ZZM  11 37
M  ZZI  11 125
M  ZZM  12 37
M  ZZI  12 125
M  ZZM  13 1
M  ZZI  13 113
M  ZZM  14 3
M  ZZI  14 121
M  ZZM  15 7
M  ZZI  15 81
M  ZZM  16 10
M  ZZI  16 191
M  ZZM  17 3
M  ZZI  17 121
M  ZZM  18 7
M  ZZI  18 81
M  ZZM  19 1
M  ZZI  19 112
M  ZZM  20 1
M  ZZI  20 112
M  ZZM  21 28
M  ZZI  21 11
M  ZZM  22 28
M  ZZI  22 11
M  ZZM  23 5
M  ZZI  23 1
M  ZZM  24 5
M  ZZI  24 1
M  ZZM  25 5
M  ZZI  25 1
M  ZZM  26 5
M  ZZI  26 1
M  ZZM  27 28
M  ZZI  27 11
M  ZZM  28 5
M  ZZI  28 1
M  ZZM  29 5
M  ZZI  29 1
M  ZZM  30 5
M  ZZI  30 1
M  ZZM  31 5
M  ZZI  31 1
M  END
> <IX>
1

> <NAME>
Cereblon_1HWK_8.pdb

> <Score>
-19.558031

> <Natom>
31

> <Nflex>
1

> <Hbond>
-4.880682

> <Hphob>
-3.498516

> <VwInt>
-24.127741

> <Dsolv>
15.797655

> <SolEl>
9.084316

> <Eintl>
1.363251

> <RecConf>
ND

> <projPath>
Cereblon_maps/

> <NAME_>
Cereblon_1HWK_8.pdb

$$$$
