Cereblon_6KZD_2.pdb
  MOLSOFT 04032206283D

 29 31  0  0  1  0  0  0  0  0999 V2000
   73.6049   38.6850   30.9990 C   0  0  0  0  0  0  0  0  0  0  0  0
   73.0736   38.9570   32.2464 C   0  0  0  0  0  0  0  0  0  0  0  0
   72.7487   40.2387   32.8747 C   0  0  0  0  0  0  0  0  0  0  0  0
   72.9098   41.3272   32.3402 O   0  0  0  0  0  0  0  0  0  0  0  0
   72.2085   39.9391   34.1106 N   0  0  0  0  0  0  0  0  0  0  0  0
   72.1754   38.5768   34.3166 C   0  0  0  0  0  0  0  0  0  0  0  0
   71.7704   37.9480   35.2838 O   0  0  0  0  0  0  0  0  0  0  0  0
   72.7114   37.9626   33.1040 C   0  0  0  0  0  0  0  0  0  0  0  0
   72.8225   36.6252   32.7699 C   0  0  0  0  0  0  0  0  0  0  0  0
   73.3209   36.3337   31.5055 C   0  0  0  0  0  0  0  0  0  0  0  0
   73.7171   37.3492   30.6378 C   0  0  0  0  0  0  0  0  0  0  0  0
   71.6633   40.9121   35.0616 C   0  0  1  0  0  0  0  0  0  0  0  0
   72.7533   41.6520   35.8272 C   0  0  0  0  0  0  0  0  0  0  0  0
   73.8333   41.1573   36.1064 O   0  0  0  0  0  0  0  0  0  0  0  0
   72.4163   42.9088   36.2766 N   0  0  0  0  0  0  0  0  0  0  0  0
   71.2398   43.5933   36.0917 C   0  0  0  0  0  0  0  0  0  0  0  0
   71.0751   44.7331   36.4841 O   0  0  0  0  0  0  0  0  0  0  0  0
   70.1381   42.8432   35.4036 C   0  0  0  0  0  0  0  0  0  0  0  0
   70.7470   41.9151   34.3794 C   0  0  0  0  0  0  0  0  0  0  0  0
   73.9046   39.4737   30.3205 H   0  0  0  0  0  0  0  0  0  0  0  0
   72.5129   35.8400   33.4530 H   0  0  0  0  0  0  0  0  0  0  0  0
   73.4021   35.2999   31.1849 H   0  0  0  0  0  0  0  0  0  0  0  0
   74.1059   37.0923   29.6580 H   0  0  0  0  0  0  0  0  0  0  0  0
   71.0923   40.3557   35.8135 H   0  0  0  0  0  0  0  0  0  0  0  0
   73.1274   43.3980   36.8041 H   0  0  0  0  0  0  0  0  0  0  0  0
   69.5598   42.3087   36.1632 H   0  0  0  0  0  0  0  0  0  0  0  0
   69.4762   43.5612   34.9083 H   0  0  0  0  0  0  0  0  0  0  0  0
   71.3167   42.5193   33.6696 H   0  0  0  0  0  0  0  0  0  0  0  0
   69.9668   41.3988   33.8131 H   0  0  0  0  0  0  0  0  0  0  0  0
  1 20  1  0  0  0  0
  1  2  1  0  0  0  0
  1 11  2  0  0  0  0
  2  3  1  0  0  0  0
  2  8  2  0  0  0  0
  3  4  2  0  0  0  0
  3  5  1  0  0  0  0
  5  6  1  0  0  0  0
 12  5  1  0  0  0  0
  6  7  2  0  0  0  0
  6  8  1  0  0  0  0
  8  9  1  0  0  0  0
  9 21  1  0  0  0  0
  9 10  2  0  0  0  0
 10 22  1  0  0  0  0
 10 11  1  0  0  0  0
 11 23  1  0  0  0  0
 12 24  1  0  0  0  0
 12 13  1  0  0  0  0
 12 19  1  0  0  0  0
 13 14  2  0  0  0  0
 13 15  1  0  0  0  0
 15 25  1  0  0  0  0
 15 16  1  0  0  0  0
 16 17  2  0  0  0  0
 16 18  1  0  0  0  0
 18 26  1  0  0  0  0
 18 27  1  0  0  0  0
 18 19  1  0  0  0  0
 19 28  1  0  0  0  0
 19 29  1  0  0  0  0
M  ZZC   1 c1
M  ZZC   2 c2
M  ZZC   3 c3
M  ZZC   4 o1
M  ZZC   5 n1
M  ZZC   6 c4
M  ZZC   7 o2
M  ZZC   8 c5
M  ZZC   9 c6
M  ZZC  10 c7
M  ZZC  11 c8
M  ZZC  12 c9
M  ZZC  13 c10
M  ZZC  14 o3
M  ZZC  15 n2
M  ZZC  16 c11
M  ZZC  17 o4
M  ZZC  18 c12
M  ZZC  19 c13
M  ZZC  20 h11
M  ZZC  21 h61
M  ZZC  22 h71
M  ZZC  23 h81
M  ZZC  24 h91
M  ZZC  25 h21
M  ZZC  26 h121
M  ZZC  27 h122
M  ZZC  28 h131
M  ZZC  29 h132
M  ZZM   1 37
M  ZZI   1 125
M  ZZM   2 37
M  ZZI   2 124
M  ZZM   3 3
M  ZZI   3 121
M  ZZM   4 7
M  ZZI   4 81
M  ZZM   5 10
M  ZZI   5 192
M  ZZM   6 3
M  ZZI   6 121
M  ZZM   7 7
M  ZZI   7 81
M  ZZM   8 37
M  ZZI   8 124
M  ZZM   9 37
M  ZZI   9 125
M  ZZM  10 37
M  ZZI  10 125
M  ZZM  11 37
M  ZZI  11 125
M  ZZM  12 1
M  ZZI  12 113
M  ZZM  13 3
M  ZZI  13 121
M  ZZM  14 7
M  ZZI  14 81
M  ZZM  15 10
M  ZZI  15 191
M  ZZM  16 3
M  ZZI  16 121
M  ZZM  17 7
M  ZZI  17 81
M  ZZM  18 1
M  ZZI  18 112
M  ZZM  19 1
M  ZZI  19 112
M  ZZM  20 5
M  ZZI  20 1
M  ZZM  21 5
M  ZZI  21 1
M  ZZM  22 5
M  ZZI  22 1
M  ZZM  23 5
M  ZZI  23 1
M  ZZM  24 5
M  ZZI  24 1
M  ZZM  25 28
M  ZZI  25 11
M  ZZM  26 5
M  ZZI  26 1
M  ZZM  27 5
M  ZZI  27 1
M  ZZM  28 5
M  ZZI  28 1
M  ZZM  29 5
M  ZZI  29 1
M  END
> <IX>
1

> <NAME>
Cereblon_6KZD_2.pdb

> <Score>
-17.214324

> <Natom>
29

> <Nflex>
1

> <Hbond>
-3.411578

> <Hphob>
-3.389842

> <VwInt>
-21.292587

> <Dsolv>
12.77644

> <SolEl>
5.788805

> <Eintl>
1.629678

> <RecConf>
ND

> <projPath>
Cereblon_maps/

> <NAME_>
Cereblon_6KZD_2.pdb

$$$$
