Cereblon_1HWK_22.pdb
  MOLSOFT 04032206193D

 29 31  0  0  1  0  0  0  0  0999 V2000
   76.9825   39.3638   41.1245 C   0  0  0  0  0  0  0  0  0  0  0  0
   76.3154   40.4887   40.6557 C   0  0  0  0  0  0  0  0  0  0  0  0
   75.3267   40.2815   39.7110 C   0  0  0  0  0  0  0  0  0  0  0  0
   74.4557   41.2464   39.0465 C   0  0  0  0  0  0  0  0  0  0  0  0
   74.4471   42.4316   39.3412 O   0  0  0  0  0  0  0  0  0  0  0  0
   73.6938   40.5319   38.1394 N   0  0  0  0  0  0  0  0  0  0  0  0
   73.9594   39.1811   38.2467 C   0  0  0  0  0  0  0  0  0  0  0  0
   73.4543   38.2405   37.6512 O   0  0  0  0  0  0  0  0  0  0  0  0
   75.0158   39.0412   39.2473 C   0  0  0  0  0  0  0  0  0  0  0  0
   75.6621   37.9066   39.7029 C   0  0  0  0  0  0  0  0  0  0  0  0
   76.6596   38.0904   40.6546 C   0  0  0  0  0  0  0  0  0  0  0  0
   72.6639   41.0699   37.2379 C   0  0  1  0  0  0  0  0  0  0  0  0
   71.3553   41.2727   37.9953 C   0  0  0  0  0  0  0  0  0  0  0  0
   71.0406   40.6149   38.9763 O   0  0  0  0  0  0  0  0  0  0  0  0
   70.4863   42.1947   37.4579 N   0  0  0  0  0  0  0  0  0  0  0  0
   70.6774   43.0428   36.3991 C   0  0  0  0  0  0  0  0  0  0  0  0
   69.8536   43.8983   36.1133 O   0  0  0  0  0  0  0  0  0  0  0  0
   71.9485   42.8312   35.6160 C   0  0  0  0  0  0  0  0  0  0  0  0
   73.0762   42.3507   36.5162 C   0  0  0  0  0  0  0  0  0  0  0  0
   77.7659   39.4804   41.8677 H   0  0  0  0  0  0  0  0  0  0  0  0
   76.5703   41.4829   41.0108 H   0  0  0  0  0  0  0  0  0  0  0  0
   75.4092   36.9177   39.3308 H   0  0  0  0  0  0  0  0  0  0  0  0
   77.1969   37.2282   41.0376 H   0  0  0  0  0  0  0  0  0  0  0  0
   72.4540   40.2997   36.4864 H   0  0  0  0  0  0  0  0  0  0  0  0
   69.6152   42.3227   37.9519 H   0  0  0  0  0  0  0  0  0  0  0  0
   71.7474   42.1116   34.8148 H   0  0  0  0  0  0  0  0  0  0  0  0
   72.2264   43.7833   35.1591 H   0  0  0  0  0  0  0  0  0  0  0  0
   73.3189   43.1434   37.2291 H   0  0  0  0  0  0  0  0  0  0  0  0
   73.9797   42.1774   35.9235 H   0  0  0  0  0  0  0  0  0  0  0  0
  1 20  1  0  0  0  0
  1  2  1  0  0  0  0
  1 11  2  0  0  0  0
  2 21  1  0  0  0  0
  2  3  2  0  0  0  0
  3  4  1  0  0  0  0
  3  9  1  0  0  0  0
  4  5  2  0  0  0  0
  4  6  1  0  0  0  0
  6  7  1  0  0  0  0
 12  6  1  0  0  0  0
  7  8  2  0  0  0  0
  7  9  1  0  0  0  0
  9 10  2  0  0  0  0
 10 22  1  0  0  0  0
 10 11  1  0  0  0  0
 11 23  1  0  0  0  0
 12 24  1  0  0  0  0
 12 13  1  0  0  0  0
 12 19  1  0  0  0  0
 13 14  2  0  0  0  0
 13 15  1  0  0  0  0
 15 25  1  0  0  0  0
 15 16  1  0  0  0  0
 16 17  2  0  0  0  0
 16 18  1  0  0  0  0
 18 26  1  0  0  0  0
 18 27  1  0  0  0  0
 18 19  1  0  0  0  0
 19 28  1  0  0  0  0
 19 29  1  0  0  0  0
M  ZZC   1 c1
M  ZZC   2 c2
M  ZZC   3 c3
M  ZZC   4 c4
M  ZZC   5 o1
M  ZZC   6 n1
M  ZZC   7 c5
M  ZZC   8 o2
M  ZZC   9 c6
M  ZZC  10 c7
M  ZZC  11 c8
M  ZZC  12 c9
M  ZZC  13 c10
M  ZZC  14 o3
M  ZZC  15 n2
M  ZZC  16 c11
M  ZZC  17 o4
M  ZZC  18 c12
M  ZZC  19 c13
M  ZZC  20 h11
M  ZZC  21 h21
M  ZZC  22 h71
M  ZZC  23 h81
M  ZZC  24 h91
M  ZZC  25 h01
M  ZZC  26 h121
M  ZZC  27 h122
M  ZZC  28 h131
M  ZZC  29 h132
M  ZZM   1 37
M  ZZI   1 125
M  ZZM   2 37
M  ZZI   2 125
M  ZZM   3 37
M  ZZI   3 124
M  ZZM   4 3
M  ZZI   4 121
M  ZZM   5 7
M  ZZI   5 81
M  ZZM   6 10
M  ZZI   6 192
M  ZZM   7 3
M  ZZI   7 121
M  ZZM   8 7
M  ZZI   8 81
M  ZZM   9 37
M  ZZI   9 124
M  ZZM  10 37
M  ZZI  10 125
M  ZZM  11 37
M  ZZI  11 125
M  ZZM  12 1
M  ZZI  12 113
M  ZZM  13 3
M  ZZI  13 121
M  ZZM  14 7
M  ZZI  14 81
M  ZZM  15 10
M  ZZI  15 191
M  ZZM  16 3
M  ZZI  16 121
M  ZZM  17 7
M  ZZI  17 81
M  ZZM  18 1
M  ZZI  18 112
M  ZZM  19 1
M  ZZI  19 112
M  ZZM  20 5
M  ZZI  20 1
M  ZZM  21 5
M  ZZI  21 1
M  ZZM  22 5
M  ZZI  22 1
M  ZZM  23 5
M  ZZI  23 1
M  ZZM  24 5
M  ZZI  24 1
M  ZZM  25 28
M  ZZI  25 11
M  ZZM  26 5
M  ZZI  26 1
M  ZZM  27 5
M  ZZI  27 1
M  ZZM  28 5
M  ZZI  28 1
M  ZZM  29 5
M  ZZI  29 1
M  END
> <IX>
1

> <NAME>
Cereblon_1HWK_22.pdb

> <Score>
-20.489883

> <Natom>
29

> <Nflex>
1

> <Hbond>
-4.56155

> <Hphob>
-3.49569

> <VwInt>
-22.433295

> <Dsolv>
13.476952

> <SolEl>
7.243392

> <Eintl>
0.563154

> <RecConf>
ND

> <projPath>
Cereblon_maps/

> <NAME_>
Cereblon_1HWK_22.pdb

$$$$
