Cereblon_3KRR_3.pdb
  MOLSOFT 04032206213D

 30 32  0  0  1  0  0  0  0  0999 V2000
   78.9584   42.3493   42.8097 C   0  0  0  0  0  0  0  0  0  0  0  0
   78.1534   42.0557   41.7216 C   0  0  0  0  0  0  0  0  0  0  0  0
   78.1620   42.8614   40.6139 C   0  0  0  0  0  0  0  0  0  0  0  0
   77.2323   42.3011   39.6259 C   0  0  0  0  0  0  0  0  0  0  0  0
   77.0146   42.7675   38.5150 O   0  0  0  0  0  0  0  0  0  0  0  0
   76.7067   41.1566   40.1940 N   0  0  0  0  0  0  0  0  0  0  0  0
   75.6922   40.3299   39.5356 C   0  0  2  0  0  0  0  0  0  0  0  0
   74.3099   40.9163   39.7945 C   0  0  0  0  0  0  0  0  0  0  0  0
   74.1240   42.1042   40.0017 O   0  0  0  0  0  0  0  0  0  0  0  0
   73.2537   40.0424   39.7101 N   0  0  0  0  0  0  0  0  0  0  0  0
   73.2835   38.6933   39.4568 C   0  0  0  0  0  0  0  0  0  0  0  0
   72.2626   38.0279   39.3957 O   0  0  0  0  0  0  0  0  0  0  0  0
   74.6462   38.0963   39.2054 C   0  0  0  0  0  0  0  0  0  0  0  0
   75.7288   38.8626   39.9446 C   0  0  0  0  0  0  0  0  0  0  0  0
   77.2293   40.9106   41.5282 C   0  0  0  0  0  0  0  0  0  0  0  0
   78.9683   43.9775   40.5063 C   0  0  0  0  0  0  0  0  0  0  0  0
   79.7883   44.2687   41.5874 C   0  0  0  0  0  0  0  0  0  0  0  0
   79.7821   43.4655   42.7257 C   0  0  0  0  0  0  0  0  0  0  0  0
   78.9574   41.7243   43.6981 H   0  0  0  0  0  0  0  0  0  0  0  0
   75.8559   40.4202   38.4594 H   0  0  0  0  0  0  0  0  0  0  0  0
   72.3368   40.4470   39.8533 H   0  0  0  0  0  0  0  0  0  0  0  0
   74.6389   37.0540   39.5396 H   0  0  0  0  0  0  0  0  0  0  0  0
   74.8233   38.1051   38.1252 H   0  0  0  0  0  0  0  0  0  0  0  0
   75.5716   38.7578   41.0230 H   0  0  0  0  0  0  0  0  0  0  0  0
   76.7101   38.4295   39.7250 H   0  0  0  0  0  0  0  0  0  0  0  0
   77.7718   39.9593   41.5413 H   0  0  0  0  0  0  0  0  0  0  0  0
   76.4195   40.9110   42.2607 H   0  0  0  0  0  0  0  0  0  0  0  0
   78.9570   44.5965   39.6166 H   0  0  0  0  0  0  0  0  0  0  0  0
   80.4363   45.1369   41.5489 H   0  0  0  0  0  0  0  0  0  0  0  0
   80.4308   43.7146   43.5603 H   0  0  0  0  0  0  0  0  0  0  0  0
  1 19  1  0  0  0  0
  1 18  2  0  0  0  0
  1  2  1  0  0  0  0
  2  3  2  0  0  0  0
  2 15  1  0  0  0  0
  3 16  1  0  0  0  0
  3  4  1  0  0  0  0
  4  6  1  0  0  0  0
  4  5  2  0  0  0  0
  6 15  1  0  0  0  0
  7  6  1  0  0  0  0
  7 20  1  0  0  0  0
  7  8  1  0  0  0  0
  7 14  1  0  0  0  0
  8  9  2  0  0  0  0
  8 10  1  0  0  0  0
 10 21  1  0  0  0  0
 10 11  1  0  0  0  0
 11 12  2  0  0  0  0
 11 13  1  0  0  0  0
 13 22  1  0  0  0  0
 13 23  1  0  0  0  0
 13 14  1  0  0  0  0
 14 24  1  0  0  0  0
 14 25  1  0  0  0  0
 15 26  1  0  0  0  0
 15 27  1  0  0  0  0
 16 17  2  0  0  0  0
 16 28  1  0  0  0  0
 17 18  1  0  0  0  0
 17 29  1  0  0  0  0
 18 30  1  0  0  0  0
M  ZZC   1 c1
M  ZZC   2 c2
M  ZZC   3 c3
M  ZZC   4 c4
M  ZZC   5 o1
M  ZZC   6 n1
M  ZZC   7 c5
M  ZZC   8 c6
M  ZZC   9 o2
M  ZZC  10 n2
M  ZZC  11 c7
M  ZZC  12 o3
M  ZZC  13 c8
M  ZZC  14 c9
M  ZZC  15 c10
M  ZZC  16 c11
M  ZZC  17 c12
M  ZZC  18 c13
M  ZZC  19 h11
M  ZZC  20 h51
M  ZZC  21 h21
M  ZZC  22 h81
M  ZZC  23 h82
M  ZZC  24 h91
M  ZZC  25 h92
M  ZZC  26 h101
M  ZZC  27 h102
M  ZZC  28 h111
M  ZZC  29 h121
M  ZZC  30 h131
M  ZZM   1 37
M  ZZI   1 125
M  ZZM   2 37
M  ZZI   2 124
M  ZZM   3 37
M  ZZI   3 124
M  ZZM   4 3
M  ZZI   4 121
M  ZZM   5 7
M  ZZI   5 81
M  ZZM   6 10
M  ZZI   6 192
M  ZZM   7 1
M  ZZI   7 113
M  ZZM   8 3
M  ZZI   8 121
M  ZZM   9 7
M  ZZI   9 81
M  ZZM  10 10
M  ZZI  10 191
M  ZZM  11 3
M  ZZI  11 121
M  ZZM  12 7
M  ZZI  12 81
M  ZZM  13 1
M  ZZI  13 112
M  ZZM  14 1
M  ZZI  14 112
M  ZZM  15 1
M  ZZI  15 112
M  ZZM  16 37
M  ZZI  16 125
M  ZZM  17 37
M  ZZI  17 125
M  ZZM  18 37
M  ZZI  18 125
M  ZZM  19 5
M  ZZI  19 1
M  ZZM  20 5
M  ZZI  20 1
M  ZZM  21 28
M  ZZI  21 11
M  ZZM  22 5
M  ZZI  22 1
M  ZZM  23 5
M  ZZI  23 1
M  ZZM  24 5
M  ZZI  24 1
M  ZZM  25 5
M  ZZI  25 1
M  ZZM  26 5
M  ZZI  26 1
M  ZZM  27 5
M  ZZI  27 1
M  ZZM  28 5
M  ZZI  28 1
M  ZZM  29 5
M  ZZI  29 1
M  ZZM  30 5
M  ZZI  30 1
M  END
> <IX>
1

> <NAME>
Cereblon_3KRR_3.pdb

> <Score>
-18.616546

> <Natom>
30

> <Nflex>
1

> <Hbond>
-3.223737

> <Hphob>
-3.829691

> <VwInt>
-21.100109

> <Dsolv>
10.930741

> <SolEl>
5.716573

> <Eintl>
1.057526

> <RecConf>
ND

> <projPath>
Cereblon_maps/

> <NAME_>
Cereblon_3KRR_3.pdb

$$$$
