Cereblon_3LQ5_17.pdb
  MOLSOFT 04032206213D

 29 31  0  0  1  0  0  0  0  0999 V2000
   78.9987   42.4856   42.6759 C   0  0  0  0  0  0  0  0  0  0  0  0
   78.1847   42.1903   41.5967 C   0  0  0  0  0  0  0  0  0  0  0  0
   77.2668   41.0731   41.4088 C   0  0  0  0  0  0  0  0  0  0  0  0
   77.0850   40.2117   42.2555 O   0  0  0  0  0  0  0  0  0  0  0  0
   76.7270   41.2179   40.1440 N   0  0  0  0  0  0  0  0  0  0  0  0
   77.2237   42.3459   39.5232 C   0  0  0  0  0  0  0  0  0  0  0  0
   76.9878   42.7666   38.3980 O   0  0  0  0  0  0  0  0  0  0  0  0
   78.1587   42.9553   40.4695 C   0  0  0  0  0  0  0  0  0  0  0  0
   78.9555   44.0736   40.3318 C   0  0  0  0  0  0  0  0  0  0  0  0
   79.7943   44.3828   41.3967 C   0  0  0  0  0  0  0  0  0  0  0  0
   79.8159   43.6029   42.5536 C   0  0  0  0  0  0  0  0  0  0  0  0
   75.7167   40.3659   39.5105 C   0  0  2  0  0  0  0  0  0  0  0  0
   74.3375   40.9360   39.8007 C   0  0  0  0  0  0  0  0  0  0  0  0
   74.1527   42.1223   40.0164 O   0  0  0  0  0  0  0  0  0  0  0  0
   73.2859   40.0560   39.7226 N   0  0  0  0  0  0  0  0  0  0  0  0
   73.3217   38.7114   39.4448 C   0  0  0  0  0  0  0  0  0  0  0  0
   72.3045   38.0409   39.3798 O   0  0  0  0  0  0  0  0  0  0  0  0
   74.6861   38.1274   39.1714 C   0  0  0  0  0  0  0  0  0  0  0  0
   75.7684   38.8949   39.9105 C   0  0  0  0  0  0  0  0  0  0  0  0
   79.0086   41.8680   43.5697 H   0  0  0  0  0  0  0  0  0  0  0  0
   78.9249   44.6776   39.4327 H   0  0  0  0  0  0  0  0  0  0  0  0
   80.4399   45.2510   41.3311 H   0  0  0  0  0  0  0  0  0  0  0  0
   80.4799   43.8719   43.3702 H   0  0  0  0  0  0  0  0  0  0  0  0
   75.8558   40.4549   38.4310 H   0  0  0  0  0  0  0  0  0  0  0  0
   72.3680   40.4513   39.8847 H   0  0  0  0  0  0  0  0  0  0  0  0
   74.6898   37.0816   39.4949 H   0  0  0  0  0  0  0  0  0  0  0  0
   74.8499   38.1486   38.0896 H   0  0  0  0  0  0  0  0  0  0  0  0
   76.7536   38.4720   39.6887 H   0  0  0  0  0  0  0  0  0  0  0  0
   75.6038   38.7747   40.9849 H   0  0  0  0  0  0  0  0  0  0  0  0
  1 20  1  0  0  0  0
  1  2  1  0  0  0  0
  1 11  2  0  0  0  0
  2  3  1  0  0  0  0
  2  8  2  0  0  0  0
  3  4  2  0  0  0  0
  3  5  1  0  0  0  0
  5  6  1  0  0  0  0
 12  5  1  0  0  0  0
  6  7  2  0  0  0  0
  6  8  1  0  0  0  0
  8  9  1  0  0  0  0
  9 21  1  0  0  0  0
  9 10  2  0  0  0  0
 10 22  1  0  0  0  0
 10 11  1  0  0  0  0
 11 23  1  0  0  0  0
 12 24  1  0  0  0  0
 12 13  1  0  0  0  0
 12 19  1  0  0  0  0
 13 14  2  0  0  0  0
 13 15  1  0  0  0  0
 15 25  1  0  0  0  0
 15 16  1  0  0  0  0
 16 17  2  0  0  0  0
 16 18  1  0  0  0  0
 18 26  1  0  0  0  0
 18 27  1  0  0  0  0
 18 19  1  0  0  0  0
 19 28  1  0  0  0  0
 19 29  1  0  0  0  0
M  ZZC   1 c1
M  ZZC   2 c2
M  ZZC   3 c3
M  ZZC   4 o1
M  ZZC   5 n1
M  ZZC   6 c4
M  ZZC   7 o2
M  ZZC   8 c5
M  ZZC   9 c6
M  ZZC  10 c7
M  ZZC  11 c8
M  ZZC  12 c9
M  ZZC  13 c10
M  ZZC  14 o3
M  ZZC  15 n2
M  ZZC  16 c11
M  ZZC  17 o4
M  ZZC  18 c12
M  ZZC  19 c13
M  ZZC  20 h11
M  ZZC  21 h61
M  ZZC  22 h71
M  ZZC  23 h81
M  ZZC  24 h91
M  ZZC  25 h21
M  ZZC  26 h121
M  ZZC  27 h122
M  ZZC  28 h131
M  ZZC  29 h132
M  ZZM   1 37
M  ZZI   1 125
M  ZZM   2 37
M  ZZI   2 124
M  ZZM   3 3
M  ZZI   3 121
M  ZZM   4 7
M  ZZI   4 81
M  ZZM   5 10
M  ZZI   5 192
M  ZZM   6 3
M  ZZI   6 121
M  ZZM   7 7
M  ZZI   7 81
M  ZZM   8 37
M  ZZI   8 124
M  ZZM   9 37
M  ZZI   9 125
M  ZZM  10 37
M  ZZI  10 125
M  ZZM  11 37
M  ZZI  11 125
M  ZZM  12 1
M  ZZI  12 113
M  ZZM  13 3
M  ZZI  13 121
M  ZZM  14 7
M  ZZI  14 81
M  ZZM  15 10
M  ZZI  15 191
M  ZZM  16 3
M  ZZI  16 121
M  ZZM  17 7
M  ZZI  17 81
M  ZZM  18 1
M  ZZI  18 112
M  ZZM  19 1
M  ZZI  19 112
M  ZZM  20 5
M  ZZI  20 1
M  ZZM  21 5
M  ZZI  21 1
M  ZZM  22 5
M  ZZI  22 1
M  ZZM  23 5
M  ZZI  23 1
M  ZZM  24 5
M  ZZI  24 1
M  ZZM  25 28
M  ZZI  25 11
M  ZZM  26 5
M  ZZI  26 1
M  ZZM  27 5
M  ZZI  27 1
M  ZZM  28 5
M  ZZI  28 1
M  ZZM  29 5
M  ZZI  29 1
M  END
> <IX>
1

> <NAME>
Cereblon_3LQ5_17.pdb

> <Score>
-19.257477

> <Natom>
29

> <Nflex>
1

> <Hbond>
-3.362354

> <Hphob>
-3.500835

> <VwInt>
-22.679058

> <Dsolv>
12.127191

> <SolEl>
5.604957

> <Eintl>
1.465385

> <RecConf>
ND

> <projPath>
Cereblon_maps/

> <NAME_>
Cereblon_3LQ5_17.pdb

$$$$
