Cereblon_2XB7_1.pdb
  MOLSOFT 04032206203D

 31 33  0  0  1  0  0  0  0  0999 V2000
   78.8138   41.6792   43.8191 N   0  0  0  0  0  0  0  0  0  0  0  0
   78.9074   42.4234   42.6325 C   0  0  0  0  0  0  0  0  0  0  0  0
   78.1011   42.1579   41.5384 C   0  0  0  0  0  0  0  0  0  0  0  0
   77.1807   41.0468   41.3314 C   0  0  0  0  0  0  0  0  0  0  0  0
   76.9998   40.1642   42.1572 O   0  0  0  0  0  0  0  0  0  0  0  0
   76.6466   41.2105   40.0688 N   0  0  0  0  0  0  0  0  0  0  0  0
   77.1670   42.3315   39.4549 C   0  0  0  0  0  0  0  0  0  0  0  0
   76.9531   42.7545   38.3262 O   0  0  0  0  0  0  0  0  0  0  0  0
   78.0982   42.9272   40.4145 C   0  0  0  0  0  0  0  0  0  0  0  0
   78.9092   44.0369   40.2937 C   0  0  0  0  0  0  0  0  0  0  0  0
   79.7247   44.3375   41.3786 C   0  0  0  0  0  0  0  0  0  0  0  0
   79.7116   43.5550   42.5348 C   0  0  0  0  0  0  0  0  0  0  0  0
   75.6267   40.3740   39.4323 C   0  0  2  0  0  0  0  0  0  0  0  0
   74.2554   40.9535   39.7355 C   0  0  0  0  0  0  0  0  0  0  0  0
   74.0856   42.1337   39.9927 O   0  0  0  0  0  0  0  0  0  0  0  0
   73.1941   40.0892   39.6200 N   0  0  0  0  0  0  0  0  0  0  0  0
   73.2184   38.7510   39.3097 C   0  0  0  0  0  0  0  0  0  0  0  0
   72.1932   38.0982   39.2021 O   0  0  0  0  0  0  0  0  0  0  0  0
   74.5813   38.1511   39.0585 C   0  0  0  0  0  0  0  0  0  0  0  0
   75.6589   38.8998   39.8227 C   0  0  0  0  0  0  0  0  0  0  0  0
   79.5538   41.7629   44.5125 H   0  0  0  0  0  0  0  0  0  0  0  0
   78.3245   40.7838   43.7768 H   0  0  0  0  0  0  0  0  0  0  0  0
   78.9022   44.6447   39.3967 H   0  0  0  0  0  0  0  0  0  0  0  0
   80.3735   45.2051   41.3333 H   0  0  0  0  0  0  0  0  0  0  0  0
   80.3437   43.8371   43.3715 H   0  0  0  0  0  0  0  0  0  0  0  0
   75.7622   40.4728   38.3541 H   0  0  0  0  0  0  0  0  0  0  0  0
   72.2790   40.4918   39.7797 H   0  0  0  0  0  0  0  0  0  0  0  0
   74.5645   37.1036   39.3756 H   0  0  0  0  0  0  0  0  0  0  0  0
   74.7697   38.1763   37.9806 H   0  0  0  0  0  0  0  0  0  0  0  0
   76.6434   38.4683   39.6162 H   0  0  0  0  0  0  0  0  0  0  0  0
   75.4732   38.7737   40.8933 H   0  0  0  0  0  0  0  0  0  0  0  0
  1  2  1  0  0  0  0
  1 21  1  0  0  0  0
  1 22  1  0  0  0  0
  2  3  1  0  0  0  0
  2 12  2  0  0  0  0
  3  9  2  0  0  0  0
  3  4  1  0  0  0  0
  4  5  2  0  0  0  0
  4  6  1  0  0  0  0
  6  7  1  0  0  0  0
 13  6  1  0  0  0  0
  7  8  2  0  0  0  0
  7  9  1  0  0  0  0
  9 10  1  0  0  0  0
 10 23  1  0  0  0  0
 10 11  2  0  0  0  0
 11 12  1  0  0  0  0
 11 24  1  0  0  0  0
 12 25  1  0  0  0  0
 13 26  1  0  0  0  0
 13 14  1  0  0  0  0
 13 20  1  0  0  0  0
 14 15  2  0  0  0  0
 14 16  1  0  0  0  0
 16 27  1  0  0  0  0
 16 17  1  0  0  0  0
 17 18  2  0  0  0  0
 17 19  1  0  0  0  0
 19 28  1  0  0  0  0
 19 29  1  0  0  0  0
 19 20  1  0  0  0  0
 20 30  1  0  0  0  0
 20 31  1  0  0  0  0
M  ZZC   1 n1
M  ZZC   2 c1
M  ZZC   3 c2
M  ZZC   4 c3
M  ZZC   5 o1
M  ZZC   6 n2
M  ZZC   7 c4
M  ZZC   8 o2
M  ZZC   9 c5
M  ZZC  10 c6
M  ZZC  11 c7
M  ZZC  12 c8
M  ZZC  13 c9
M  ZZC  14 c10
M  ZZC  15 o3
M  ZZC  16 n3
M  ZZC  17 c11
M  ZZC  18 o4
M  ZZC  19 c12
M  ZZC  20 c13
M  ZZC  21 h11
M  ZZC  22 h12
M  ZZC  23 h61
M  ZZC  24 h71
M  ZZC  25 h81
M  ZZC  26 h91
M  ZZC  27 h31
M  ZZC  28 h121
M  ZZC  29 h122
M  ZZC  30 h131
M  ZZC  31 h132
M  ZZM   1 40
M  ZZI   1 224
M  ZZM   2 37
M  ZZI   2 124
M  ZZM   3 37
M  ZZI   3 124
M  ZZM   4 3
M  ZZI   4 121
M  ZZM   5 7
M  ZZI   5 81
M  ZZM   6 10
M  ZZI   6 192
M  ZZM   7 3
M  ZZI   7 121
M  ZZM   8 7
M  ZZI   8 81
M  ZZM   9 37
M  ZZI   9 124
M  ZZM  10 37
M  ZZI  10 125
M  ZZM  11 37
M  ZZI  11 125
M  ZZM  12 37
M  ZZI  12 125
M  ZZM  13 1
M  ZZI  13 113
M  ZZM  14 3
M  ZZI  14 121
M  ZZM  15 7
M  ZZI  15 81
M  ZZM  16 10
M  ZZI  16 191
M  ZZM  17 3
M  ZZI  17 121
M  ZZM  18 7
M  ZZI  18 81
M  ZZM  19 1
M  ZZI  19 112
M  ZZM  20 1
M  ZZI  20 112
M  ZZM  21 28
M  ZZI  21 11
M  ZZM  22 28
M  ZZI  22 11
M  ZZM  23 5
M  ZZI  23 1
M  ZZM  24 5
M  ZZI  24 1
M  ZZM  25 5
M  ZZI  25 1
M  ZZM  26 5
M  ZZI  26 1
M  ZZM  27 28
M  ZZI  27 11
M  ZZM  28 5
M  ZZI  28 1
M  ZZM  29 5
M  ZZI  29 1
M  ZZM  30 5
M  ZZI  30 1
M  ZZM  31 5
M  ZZI  31 1
M  END
> <IX>
1

> <NAME>
Cereblon_2XB7_1.pdb

> <Score>
-18.539735

> <Natom>
31

> <Nflex>
1

> <Hbond>
-3.705944

> <Hphob>
-3.530211

> <VwInt>
-24.205029

> <Dsolv>
15.139379

> <SolEl>
6.721014

> <Eintl>
1.693617

> <RecConf>
ND

> <projPath>
Cereblon_maps/

> <NAME_>
Cereblon_2XB7_1.pdb

$$$$
