Cereblon_1HWK_24.pdb
  MOLSOFT 04032206193D

 29 31  0  0  1  0  0  0  0  0999 V2000
   76.9749   39.3617   41.1217 C   0  0  0  0  0  0  0  0  0  0  0  0
   76.3088   40.4871   40.6529 C   0  0  0  0  0  0  0  0  0  0  0  0
   75.3204   40.2810   39.7076 C   0  0  0  0  0  0  0  0  0  0  0  0
   74.4496   41.2464   39.0437 C   0  0  0  0  0  0  0  0  0  0  0  0
   74.4427   42.4316   39.3386 O   0  0  0  0  0  0  0  0  0  0  0  0
   73.6866   40.5323   38.1372 N   0  0  0  0  0  0  0  0  0  0  0  0
   73.9517   39.1814   38.2439 C   0  0  0  0  0  0  0  0  0  0  0  0
   73.4452   38.2410   37.6493 O   0  0  0  0  0  0  0  0  0  0  0  0
   75.0088   39.0409   39.2436 C   0  0  0  0  0  0  0  0  0  0  0  0
   75.6548   37.9060   39.6990 C   0  0  0  0  0  0  0  0  0  0  0  0
   76.6516   38.0889   40.6513 C   0  0  0  0  0  0  0  0  0  0  0  0
   72.6568   41.0710   37.2361 C   0  0  1  0  0  0  0  0  0  0  0  0
   71.3488   41.2750   37.9940 C   0  0  0  0  0  0  0  0  0  0  0  0
   71.0334   40.6164   38.9743 O   0  0  0  0  0  0  0  0  0  0  0  0
   70.4800   42.1974   37.4569 N   0  0  0  0  0  0  0  0  0  0  0  0
   70.6711   43.0457   36.3980 C   0  0  0  0  0  0  0  0  0  0  0  0
   69.8476   43.9016   36.1124 O   0  0  0  0  0  0  0  0  0  0  0  0
   71.9416   42.8326   35.6142 C   0  0  0  0  0  0  0  0  0  0  0  0
   73.0698   42.3513   36.5129 C   0  0  0  0  0  0  0  0  0  0  0  0
   77.7587   39.4771   41.8645 H   0  0  0  0  0  0  0  0  0  0  0  0
   76.5641   41.4806   41.0081 H   0  0  0  0  0  0  0  0  0  0  0  0
   75.4014   36.9178   39.3264 H   0  0  0  0  0  0  0  0  0  0  0  0
   77.1894   37.2266   41.0331 H   0  0  0  0  0  0  0  0  0  0  0  0
   72.4455   40.3006   36.4853 H   0  0  0  0  0  0  0  0  0  0  0  0
   69.6097   42.3268   37.9517 H   0  0  0  0  0  0  0  0  0  0  0  0
   71.7382   42.1137   34.8133 H   0  0  0  0  0  0  0  0  0  0  0  0
   72.2189   43.7841   35.1559 H   0  0  0  0  0  0  0  0  0  0  0  0
   73.3149   43.1442   37.2248 H   0  0  0  0  0  0  0  0  0  0  0  0
   73.9727   42.1768   35.9190 H   0  0  0  0  0  0  0  0  0  0  0  0
  1 20  1  0  0  0  0
  1  2  1  0  0  0  0
  1 11  2  0  0  0  0
  2 21  1  0  0  0  0
  2  3  2  0  0  0  0
  3  4  1  0  0  0  0
  3  9  1  0  0  0  0
  4  5  2  0  0  0  0
  4  6  1  0  0  0  0
  6  7  1  0  0  0  0
 12  6  1  0  0  0  0
  7  8  2  0  0  0  0
  7  9  1  0  0  0  0
  9 10  2  0  0  0  0
 10 22  1  0  0  0  0
 10 11  1  0  0  0  0
 11 23  1  0  0  0  0
 12 24  1  0  0  0  0
 12 13  1  0  0  0  0
 12 19  1  0  0  0  0
 13 14  2  0  0  0  0
 13 15  1  0  0  0  0
 15 25  1  0  0  0  0
 15 16  1  0  0  0  0
 16 17  2  0  0  0  0
 16 18  1  0  0  0  0
 18 26  1  0  0  0  0
 18 27  1  0  0  0  0
 18 19  1  0  0  0  0
 19 28  1  0  0  0  0
 19 29  1  0  0  0  0
M  ZZC   1 c1
M  ZZC   2 c2
M  ZZC   3 c3
M  ZZC   4 c4
M  ZZC   5 o1
M  ZZC   6 n1
M  ZZC   7 c5
M  ZZC   8 o2
M  ZZC   9 c6
M  ZZC  10 c7
M  ZZC  11 c8
M  ZZC  12 c9
M  ZZC  13 c10
M  ZZC  14 o3
M  ZZC  15 n2
M  ZZC  16 c11
M  ZZC  17 o4
M  ZZC  18 c12
M  ZZC  19 c13
M  ZZC  20 h11
M  ZZC  21 h21
M  ZZC  22 h71
M  ZZC  23 h81
M  ZZC  24 h91
M  ZZC  25 h01
M  ZZC  26 h121
M  ZZC  27 h122
M  ZZC  28 h131
M  ZZC  29 h132
M  ZZM   1 37
M  ZZI   1 125
M  ZZM   2 37
M  ZZI   2 125
M  ZZM   3 37
M  ZZI   3 124
M  ZZM   4 3
M  ZZI   4 121
M  ZZM   5 7
M  ZZI   5 81
M  ZZM   6 10
M  ZZI   6 192
M  ZZM   7 3
M  ZZI   7 121
M  ZZM   8 7
M  ZZI   8 81
M  ZZM   9 37
M  ZZI   9 124
M  ZZM  10 37
M  ZZI  10 125
M  ZZM  11 37
M  ZZI  11 125
M  ZZM  12 1
M  ZZI  12 113
M  ZZM  13 3
M  ZZI  13 121
M  ZZM  14 7
M  ZZI  14 81
M  ZZM  15 10
M  ZZI  15 191
M  ZZM  16 3
M  ZZI  16 121
M  ZZM  17 7
M  ZZI  17 81
M  ZZM  18 1
M  ZZI  18 112
M  ZZM  19 1
M  ZZI  19 112
M  ZZM  20 5
M  ZZI  20 1
M  ZZM  21 5
M  ZZI  21 1
M  ZZM  22 5
M  ZZI  22 1
M  ZZM  23 5
M  ZZI  23 1
M  ZZM  24 5
M  ZZI  24 1
M  ZZM  25 28
M  ZZI  25 11
M  ZZM  26 5
M  ZZI  26 1
M  ZZM  27 5
M  ZZI  27 1
M  ZZM  28 5
M  ZZI  28 1
M  ZZM  29 5
M  ZZI  29 1
M  END
> <IX>
1

> <NAME>
Cereblon_1HWK_24.pdb

> <Score>
-20.471244

> <Natom>
29

> <Nflex>
1

> <Hbond>
-4.57187

> <Hphob>
-3.526002

> <VwInt>
-22.389261

> <Dsolv>
13.486845

> <SolEl>
7.257193

> <Eintl>
0.570647

> <RecConf>
ND

> <projPath>
Cereblon_maps/

> <NAME_>
Cereblon_1HWK_24.pdb

$$$$
