Cereblon_4IPF_8.pdb
  MOLSOFT 04032206223D

 30 32  0  0  1  0  0  0  0  0999 V2000
   78.9603   42.3491   42.8097 C   0  0  0  0  0  0  0  0  0  0  0  0
   78.1544   42.0560   41.7220 C   0  0  0  0  0  0  0  0  0  0  0  0
   78.1625   42.8620   40.6144 C   0  0  0  0  0  0  0  0  0  0  0  0
   77.2329   42.3018   39.6264 C   0  0  0  0  0  0  0  0  0  0  0  0
   77.0150   42.7686   38.5157 O   0  0  0  0  0  0  0  0  0  0  0  0
   76.7075   41.1572   40.1942 N   0  0  0  0  0  0  0  0  0  0  0  0
   75.6930   40.3308   39.5353 C   0  0  2  0  0  0  0  0  0  0  0  0
   74.3107   40.9171   39.7948 C   0  0  0  0  0  0  0  0  0  0  0  0
   74.1246   42.1051   40.0019 O   0  0  0  0  0  0  0  0  0  0  0  0
   73.2541   40.0437   39.7096 N   0  0  0  0  0  0  0  0  0  0  0  0
   73.2839   38.6944   39.4578 C   0  0  0  0  0  0  0  0  0  0  0  0
   72.2632   38.0287   39.3988 O   0  0  0  0  0  0  0  0  0  0  0  0
   74.6462   38.0970   39.2067 C   0  0  0  0  0  0  0  0  0  0  0  0
   75.7295   38.8632   39.9444 C   0  0  0  0  0  0  0  0  0  0  0  0
   77.2300   40.9111   41.5285 C   0  0  0  0  0  0  0  0  0  0  0  0
   78.9679   43.9789   40.5069 C   0  0  0  0  0  0  0  0  0  0  0  0
   79.7889   44.2698   41.5877 C   0  0  0  0  0  0  0  0  0  0  0  0
   79.7840   43.4653   42.7252 C   0  0  0  0  0  0  0  0  0  0  0  0
   78.9593   41.7236   43.6976 H   0  0  0  0  0  0  0  0  0  0  0  0
   75.8574   40.4208   38.4594 H   0  0  0  0  0  0  0  0  0  0  0  0
   72.3375   40.4488   39.8534 H   0  0  0  0  0  0  0  0  0  0  0  0
   74.6386   37.0551   39.5424 H   0  0  0  0  0  0  0  0  0  0  0  0
   74.8230   38.1043   38.1265 H   0  0  0  0  0  0  0  0  0  0  0  0
   75.5736   38.7585   41.0228 H   0  0  0  0  0  0  0  0  0  0  0  0
   76.7107   38.4302   39.7231 H   0  0  0  0  0  0  0  0  0  0  0  0
   77.7720   39.9595   41.5415 H   0  0  0  0  0  0  0  0  0  0  0  0
   76.4202   40.9117   42.2610 H   0  0  0  0  0  0  0  0  0  0  0  0
   78.9565   44.5979   39.6172 H   0  0  0  0  0  0  0  0  0  0  0  0
   80.4364   45.1384   41.5493 H   0  0  0  0  0  0  0  0  0  0  0  0
   80.4332   43.7144   43.5595 H   0  0  0  0  0  0  0  0  0  0  0  0
  1 19  1  0  0  0  0
  1 18  2  0  0  0  0
  1  2  1  0  0  0  0
  2  3  2  0  0  0  0
  2 15  1  0  0  0  0
  3 16  1  0  0  0  0
  3  4  1  0  0  0  0
  4  6  1  0  0  0  0
  4  5  2  0  0  0  0
  6 15  1  0  0  0  0
  7  6  1  0  0  0  0
  7 20  1  0  0  0  0
  7  8  1  0  0  0  0
  7 14  1  0  0  0  0
  8  9  2  0  0  0  0
  8 10  1  0  0  0  0
 10 21  1  0  0  0  0
 10 11  1  0  0  0  0
 11 12  2  0  0  0  0
 11 13  1  0  0  0  0
 13 22  1  0  0  0  0
 13 23  1  0  0  0  0
 13 14  1  0  0  0  0
 14 24  1  0  0  0  0
 14 25  1  0  0  0  0
 15 26  1  0  0  0  0
 15 27  1  0  0  0  0
 16 17  2  0  0  0  0
 16 28  1  0  0  0  0
 17 18  1  0  0  0  0
 17 29  1  0  0  0  0
 18 30  1  0  0  0  0
M  ZZC   1 c1
M  ZZC   2 c2
M  ZZC   3 c3
M  ZZC   4 c4
M  ZZC   5 o1
M  ZZC   6 n1
M  ZZC   7 c5
M  ZZC   8 c6
M  ZZC   9 o2
M  ZZC  10 n2
M  ZZC  11 c7
M  ZZC  12 o3
M  ZZC  13 c8
M  ZZC  14 c9
M  ZZC  15 c10
M  ZZC  16 c11
M  ZZC  17 c12
M  ZZC  18 c13
M  ZZC  19 h11
M  ZZC  20 h51
M  ZZC  21 h21
M  ZZC  22 h81
M  ZZC  23 h82
M  ZZC  24 h91
M  ZZC  25 h92
M  ZZC  26 h101
M  ZZC  27 h102
M  ZZC  28 h111
M  ZZC  29 h121
M  ZZC  30 h131
M  ZZM   1 37
M  ZZI   1 125
M  ZZM   2 37
M  ZZI   2 124
M  ZZM   3 37
M  ZZI   3 124
M  ZZM   4 3
M  ZZI   4 121
M  ZZM   5 7
M  ZZI   5 81
M  ZZM   6 10
M  ZZI   6 192
M  ZZM   7 1
M  ZZI   7 113
M  ZZM   8 3
M  ZZI   8 121
M  ZZM   9 7
M  ZZI   9 81
M  ZZM  10 10
M  ZZI  10 191
M  ZZM  11 3
M  ZZI  11 121
M  ZZM  12 7
M  ZZI  12 81
M  ZZM  13 1
M  ZZI  13 112
M  ZZM  14 1
M  ZZI  14 112
M  ZZM  15 1
M  ZZI  15 112
M  ZZM  16 37
M  ZZI  16 125
M  ZZM  17 37
M  ZZI  17 125
M  ZZM  18 37
M  ZZI  18 125
M  ZZM  19 5
M  ZZI  19 1
M  ZZM  20 5
M  ZZI  20 1
M  ZZM  21 28
M  ZZI  21 11
M  ZZM  22 5
M  ZZI  22 1
M  ZZM  23 5
M  ZZI  23 1
M  ZZM  24 5
M  ZZI  24 1
M  ZZM  25 5
M  ZZI  25 1
M  ZZM  26 5
M  ZZI  26 1
M  ZZM  27 5
M  ZZI  27 1
M  ZZM  28 5
M  ZZI  28 1
M  ZZM  29 5
M  ZZI  29 1
M  ZZM  30 5
M  ZZI  30 1
M  END
> <IX>
1

> <NAME>
Cereblon_4IPF_8.pdb

> <Score>
-18.638265

> <Natom>
30

> <Nflex>
1

> <Hbond>
-3.226382

> <Hphob>
-3.960061

> <VwInt>
-21.098622

> <Dsolv>
10.901864

> <SolEl>
5.865534

> <Eintl>
1.04782

> <RecConf>
ND

> <projPath>
Cereblon_maps/

> <NAME_>
Cereblon_4IPF_8.pdb

$$$$
