Cereblon_3QQU_1.pdb
  MOLSOFT 04032206223D

 31 33  0  0  1  0  0  0  0  0999 V2000
   78.7164   41.7125   43.8955 N   0  0  0  0  0  0  0  0  0  0  0  0
   78.7892   42.4875   42.7271 C   0  0  0  0  0  0  0  0  0  0  0  0
   78.0662   42.1694   41.5895 C   0  0  0  0  0  0  0  0  0  0  0  0
   77.1552   41.0546   41.3672 C   0  0  0  0  0  0  0  0  0  0  0  0
   76.9456   40.1871   42.2016 O   0  0  0  0  0  0  0  0  0  0  0  0
   76.6525   41.2064   40.0905 N   0  0  0  0  0  0  0  0  0  0  0  0
   77.1934   42.3175   39.4769 C   0  0  0  0  0  0  0  0  0  0  0  0
   76.9981   42.7349   38.3428 O   0  0  0  0  0  0  0  0  0  0  0  0
   78.1077   42.9164   40.4512 C   0  0  0  0  0  0  0  0  0  0  0  0
   78.9287   44.0195   40.3378 C   0  0  0  0  0  0  0  0  0  0  0  0
   79.7180   44.3277   41.4409 C   0  0  0  0  0  0  0  0  0  0  0  0
   79.6507   43.5748   42.6152 C   0  0  0  0  0  0  0  0  0  0  0  0
   75.6432   40.3667   39.4419 C   0  0  2  0  0  0  0  0  0  0  0  0
   74.2689   40.9494   39.7252 C   0  0  0  0  0  0  0  0  0  0  0  0
   74.0976   42.1294   39.9818 O   0  0  0  0  0  0  0  0  0  0  0  0
   73.2082   40.0866   39.5960 N   0  0  0  0  0  0  0  0  0  0  0  0
   73.2343   38.7481   39.2880 C   0  0  0  0  0  0  0  0  0  0  0  0
   72.2095   38.0978   39.1636 O   0  0  0  0  0  0  0  0  0  0  0  0
   74.5993   38.1431   39.0604 C   0  0  0  0  0  0  0  0  0  0  0  0
   75.6695   38.8933   39.8345 C   0  0  0  0  0  0  0  0  0  0  0  0
   78.9692   42.1305   44.7899 H   0  0  0  0  0  0  0  0  0  0  0  0
   78.0715   40.9203   43.9094 H   0  0  0  0  0  0  0  0  0  0  0  0
   78.9580   44.6086   39.4289 H   0  0  0  0  0  0  0  0  0  0  0  0
   80.3929   45.1751   41.3932 H   0  0  0  0  0  0  0  0  0  0  0  0
   80.2818   43.8472   43.4557 H   0  0  0  0  0  0  0  0  0  0  0  0
   75.7929   40.4626   38.3652 H   0  0  0  0  0  0  0  0  0  0  0  0
   72.2915   40.4913   39.7414 H   0  0  0  0  0  0  0  0  0  0  0  0
   74.5757   37.0973   39.3828 H   0  0  0  0  0  0  0  0  0  0  0  0
   74.8009   38.1614   37.9850 H   0  0  0  0  0  0  0  0  0  0  0  0
   76.6559   38.4611   39.6374 H   0  0  0  0  0  0  0  0  0  0  0  0
   75.4744   38.7672   40.9033 H   0  0  0  0  0  0  0  0  0  0  0  0
  1  2  1  0  0  0  0
  1 21  1  0  0  0  0
  1 22  1  0  0  0  0
  2  3  1  0  0  0  0
  2 12  2  0  0  0  0
  3  9  2  0  0  0  0
  3  4  1  0  0  0  0
  4  5  2  0  0  0  0
  4  6  1  0  0  0  0
  6  7  1  0  0  0  0
 13  6  1  0  0  0  0
  7  8  2  0  0  0  0
  7  9  1  0  0  0  0
  9 10  1  0  0  0  0
 10 23  1  0  0  0  0
 10 11  2  0  0  0  0
 11 12  1  0  0  0  0
 11 24  1  0  0  0  0
 12 25  1  0  0  0  0
 13 26  1  0  0  0  0
 13 14  1  0  0  0  0
 13 20  1  0  0  0  0
 14 15  2  0  0  0  0
 14 16  1  0  0  0  0
 16 27  1  0  0  0  0
 16 17  1  0  0  0  0
 17 18  2  0  0  0  0
 17 19  1  0  0  0  0
 19 28  1  0  0  0  0
 19 29  1  0  0  0  0
 19 20  1  0  0  0  0
 20 30  1  0  0  0  0
 20 31  1  0  0  0  0
M  ZZC   1 n1
M  ZZC   2 c1
M  ZZC   3 c2
M  ZZC   4 c3
M  ZZC   5 o1
M  ZZC   6 n2
M  ZZC   7 c4
M  ZZC   8 o2
M  ZZC   9 c5
M  ZZC  10 c6
M  ZZC  11 c7
M  ZZC  12 c8
M  ZZC  13 c9
M  ZZC  14 c10
M  ZZC  15 o3
M  ZZC  16 n3
M  ZZC  17 c11
M  ZZC  18 o4
M  ZZC  19 c12
M  ZZC  20 c13
M  ZZC  21 h11
M  ZZC  22 h12
M  ZZC  23 h61
M  ZZC  24 h71
M  ZZC  25 h81
M  ZZC  26 h91
M  ZZC  27 h31
M  ZZC  28 h121
M  ZZC  29 h122
M  ZZC  30 h131
M  ZZC  31 h132
M  ZZM   1 40
M  ZZI   1 224
M  ZZM   2 37
M  ZZI   2 124
M  ZZM   3 37
M  ZZI   3 124
M  ZZM   4 3
M  ZZI   4 121
M  ZZM   5 7
M  ZZI   5 81
M  ZZM   6 10
M  ZZI   6 192
M  ZZM   7 3
M  ZZI   7 121
M  ZZM   8 7
M  ZZI   8 81
M  ZZM   9 37
M  ZZI   9 124
M  ZZM  10 37
M  ZZI  10 125
M  ZZM  11 37
M  ZZI  11 125
M  ZZM  12 37
M  ZZI  12 125
M  ZZM  13 1
M  ZZI  13 113
M  ZZM  14 3
M  ZZI  14 121
M  ZZM  15 7
M  ZZI  15 81
M  ZZM  16 10
M  ZZI  16 191
M  ZZM  17 3
M  ZZI  17 121
M  ZZM  18 7
M  ZZI  18 81
M  ZZM  19 1
M  ZZI  19 112
M  ZZM  20 1
M  ZZI  20 112
M  ZZM  21 28
M  ZZI  21 11
M  ZZM  22 28
M  ZZI  22 11
M  ZZM  23 5
M  ZZI  23 1
M  ZZM  24 5
M  ZZI  24 1
M  ZZM  25 5
M  ZZI  25 1
M  ZZM  26 5
M  ZZI  26 1
M  ZZM  27 28
M  ZZI  27 11
M  ZZM  28 5
M  ZZI  28 1
M  ZZM  29 5
M  ZZI  29 1
M  ZZM  30 5
M  ZZI  30 1
M  ZZM  31 5
M  ZZI  31 1
M  END
> <IX>
1

> <NAME>
Cereblon_3QQU_1.pdb

> <Score>
-21.573111

> <Natom>
31

> <Nflex>
1

> <Hbond>
-4.84937

> <Hphob>
-3.561415

> <VwInt>
-24.096444

> <Dsolv>
15.271886

> <SolEl>
6.00305

> <Eintl>
1.937433

> <RecConf>
ND

> <projPath>
Cereblon_maps/

> <NAME_>
Cereblon_3QQU_1.pdb

$$$$
