Cereblon_5L2I_18.pdb
  MOLSOFT 04032206253D

 31 33  0  0  1  0  0  0  0  0999 V2000
   78.8168   41.6806   43.8097 N   0  0  0  0  0  0  0  0  0  0  0  0
   78.8991   42.4327   42.6279 C   0  0  0  0  0  0  0  0  0  0  0  0
   78.0963   42.1626   41.5327 C   0  0  0  0  0  0  0  0  0  0  0  0
   77.1753   41.0516   41.3278 C   0  0  0  0  0  0  0  0  0  0  0  0
   76.9925   40.1722   42.1562 O   0  0  0  0  0  0  0  0  0  0  0  0
   76.6414   41.2137   40.0648 N   0  0  0  0  0  0  0  0  0  0  0  0
   77.1630   42.3329   39.4485 C   0  0  0  0  0  0  0  0  0  0  0  0
   76.9510   42.7522   38.3181 O   0  0  0  0  0  0  0  0  0  0  0  0
   78.0939   42.9302   40.4076 C   0  0  0  0  0  0  0  0  0  0  0  0
   78.9062   44.0388   40.2851 C   0  0  0  0  0  0  0  0  0  0  0  0
   79.7248   44.3387   41.3683 C   0  0  0  0  0  0  0  0  0  0  0  0
   79.7117   43.5577   42.5255 C   0  0  0  0  0  0  0  0  0  0  0  0
   75.6222   40.3759   39.4290 C   0  0  2  0  0  0  0  0  0  0  0  0
   74.2506   40.9542   39.7326 C   0  0  0  0  0  0  0  0  0  0  0  0
   74.0797   42.1338   39.9910 O   0  0  0  0  0  0  0  0  0  0  0  0
   73.1899   40.0892   39.6156 N   0  0  0  0  0  0  0  0  0  0  0  0
   73.2152   38.7515   39.3034 C   0  0  0  0  0  0  0  0  0  0  0  0
   72.1903   38.0996   39.1901 O   0  0  0  0  0  0  0  0  0  0  0  0
   74.5788   38.1508   39.0578 C   0  0  0  0  0  0  0  0  0  0  0  0
   75.6553   38.9023   39.8209 C   0  0  0  0  0  0  0  0  0  0  0  0
   79.5339   41.7821   44.5249 H   0  0  0  0  0  0  0  0  0  0  0  0
   78.2856   40.8084   43.7914 H   0  0  0  0  0  0  0  0  0  0  0  0
   78.8993   44.6449   39.3869 H   0  0  0  0  0  0  0  0  0  0  0  0
   80.3764   45.2041   41.3209 H   0  0  0  0  0  0  0  0  0  0  0  0
   80.3479   43.8371   43.3598 H   0  0  0  0  0  0  0  0  0  0  0  0
   75.7568   40.4747   38.3507 H   0  0  0  0  0  0  0  0  0  0  0  0
   72.2742   40.4914   39.7734 H   0  0  0  0  0  0  0  0  0  0  0  0
   74.5621   37.1044   39.3788 H   0  0  0  0  0  0  0  0  0  0  0  0
   74.7699   38.1715   37.9804 H   0  0  0  0  0  0  0  0  0  0  0  0
   76.6403   38.4710   39.6155 H   0  0  0  0  0  0  0  0  0  0  0  0
   75.4699   38.7769   40.8916 H   0  0  0  0  0  0  0  0  0  0  0  0
  1  2  1  0  0  0  0
  1 21  1  0  0  0  0
  1 22  1  0  0  0  0
  2  3  1  0  0  0  0
  2 12  2  0  0  0  0
  3  9  2  0  0  0  0
  3  4  1  0  0  0  0
  4  5  2  0  0  0  0
  4  6  1  0  0  0  0
  6  7  1  0  0  0  0
 13  6  1  0  0  0  0
  7  8  2  0  0  0  0
  7  9  1  0  0  0  0
  9 10  1  0  0  0  0
 10 23  1  0  0  0  0
 10 11  2  0  0  0  0
 11 12  1  0  0  0  0
 11 24  1  0  0  0  0
 12 25  1  0  0  0  0
 13 26  1  0  0  0  0
 13 14  1  0  0  0  0
 13 20  1  0  0  0  0
 14 15  2  0  0  0  0
 14 16  1  0  0  0  0
 16 27  1  0  0  0  0
 16 17  1  0  0  0  0
 17 18  2  0  0  0  0
 17 19  1  0  0  0  0
 19 28  1  0  0  0  0
 19 29  1  0  0  0  0
 19 20  1  0  0  0  0
 20 30  1  0  0  0  0
 20 31  1  0  0  0  0
M  ZZC   1 n1
M  ZZC   2 c1
M  ZZC   3 c2
M  ZZC   4 c3
M  ZZC   5 o1
M  ZZC   6 n2
M  ZZC   7 c4
M  ZZC   8 o2
M  ZZC   9 c5
M  ZZC  10 c6
M  ZZC  11 c7
M  ZZC  12 c8
M  ZZC  13 c9
M  ZZC  14 c10
M  ZZC  15 o3
M  ZZC  16 n3
M  ZZC  17 c11
M  ZZC  18 o4
M  ZZC  19 c12
M  ZZC  20 c13
M  ZZC  21 h11
M  ZZC  22 h12
M  ZZC  23 h61
M  ZZC  24 h71
M  ZZC  25 h81
M  ZZC  26 h91
M  ZZC  27 h31
M  ZZC  28 h121
M  ZZC  29 h122
M  ZZC  30 h131
M  ZZC  31 h132
M  ZZM   1 40
M  ZZI   1 224
M  ZZM   2 37
M  ZZI   2 124
M  ZZM   3 37
M  ZZI   3 124
M  ZZM   4 3
M  ZZI   4 121
M  ZZM   5 7
M  ZZI   5 81
M  ZZM   6 10
M  ZZI   6 192
M  ZZM   7 3
M  ZZI   7 121
M  ZZM   8 7
M  ZZI   8 81
M  ZZM   9 37
M  ZZI   9 124
M  ZZM  10 37
M  ZZI  10 125
M  ZZM  11 37
M  ZZI  11 125
M  ZZM  12 37
M  ZZI  12 125
M  ZZM  13 1
M  ZZI  13 113
M  ZZM  14 3
M  ZZI  14 121
M  ZZM  15 7
M  ZZI  15 81
M  ZZM  16 10
M  ZZI  16 191
M  ZZM  17 3
M  ZZI  17 121
M  ZZM  18 7
M  ZZI  18 81
M  ZZM  19 1
M  ZZI  19 112
M  ZZM  20 1
M  ZZI  20 112
M  ZZM  21 28
M  ZZI  21 11
M  ZZM  22 28
M  ZZI  22 11
M  ZZM  23 5
M  ZZI  23 1
M  ZZM  24 5
M  ZZI  24 1
M  ZZM  25 5
M  ZZI  25 1
M  ZZM  26 5
M  ZZI  26 1
M  ZZM  27 28
M  ZZI  27 11
M  ZZM  28 5
M  ZZI  28 1
M  ZZM  29 5
M  ZZI  29 1
M  ZZM  30 5
M  ZZI  30 1
M  ZZM  31 5
M  ZZI  31 1
M  END
> <IX>
1

> <NAME>
Cereblon_5L2I_18.pdb

> <Score>
-18.386673

> <Natom>
31

> <Nflex>
1

> <Hbond>
-3.684822

> <Hphob>
-3.535298

> <VwInt>
-24.259763

> <Dsolv>
15.159761

> <SolEl>
6.947848

> <Eintl>
1.681564

> <RecConf>
ND

> <projPath>
Cereblon_maps/

> <NAME_>
Cereblon_5L2I_18.pdb

$$$$
