Cereblon_6Y7K_9.pdb
  MOLSOFT 04032206303D

 31 33  0  0  1  0  0  0  0  0999 V2000
   78.8132   41.6801   43.8215 N   0  0  0  0  0  0  0  0  0  0  0  0
   78.9071   42.4242   42.6348 C   0  0  0  0  0  0  0  0  0  0  0  0
   78.1012   42.1583   41.5405 C   0  0  0  0  0  0  0  0  0  0  0  0
   77.1787   41.0491   41.3347 C   0  0  0  0  0  0  0  0  0  0  0  0
   76.9971   40.1671   42.1609 O   0  0  0  0  0  0  0  0  0  0  0  0
   76.6445   41.2124   40.0720 N   0  0  0  0  0  0  0  0  0  0  0  0
   77.1665   42.3322   39.4572 C   0  0  0  0  0  0  0  0  0  0  0  0
   76.9535   42.7562   38.3287 O   0  0  0  0  0  0  0  0  0  0  0  0
   78.0987   42.9271   40.4162 C   0  0  0  0  0  0  0  0  0  0  0  0
   78.9110   44.0359   40.2951 C   0  0  0  0  0  0  0  0  0  0  0  0
   79.7267   44.3363   41.3799 C   0  0  0  0  0  0  0  0  0  0  0  0
   79.7131   43.5544   42.5364 C   0  0  0  0  0  0  0  0  0  0  0  0
   75.6257   40.3755   39.4343 C   0  0  2  0  0  0  0  0  0  0  0  0
   74.2537   40.9522   39.7385 C   0  0  0  0  0  0  0  0  0  0  0  0
   74.0798   42.1324   39.9930 O   0  0  0  0  0  0  0  0  0  0  0  0
   73.1943   40.0849   39.6269 N   0  0  0  0  0  0  0  0  0  0  0  0
   73.2219   38.7472   39.3138 C   0  0  0  0  0  0  0  0  0  0  0  0
   72.1980   38.0923   39.2073 O   0  0  0  0  0  0  0  0  0  0  0  0
   74.5850   38.1519   39.0580 C   0  0  0  0  0  0  0  0  0  0  0  0
   75.6609   38.9017   39.8231 C   0  0  0  0  0  0  0  0  0  0  0  0
   79.5523   41.7629   44.5160 H   0  0  0  0  0  0  0  0  0  0  0  0
   78.3213   40.7862   43.7791 H   0  0  0  0  0  0  0  0  0  0  0  0
   78.9049   44.6428   39.3973 H   0  0  0  0  0  0  0  0  0  0  0  0
   80.3751   45.2042   41.3350 H   0  0  0  0  0  0  0  0  0  0  0  0
   80.3449   43.8356   43.3735 H   0  0  0  0  0  0  0  0  0  0  0  0
   75.7600   40.4753   38.3557 H   0  0  0  0  0  0  0  0  0  0  0  0
   72.2788   40.4861   39.7882 H   0  0  0  0  0  0  0  0  0  0  0  0
   74.5721   37.1037   39.3735 H   0  0  0  0  0  0  0  0  0  0  0  0
   74.7720   38.1788   37.9799 H   0  0  0  0  0  0  0  0  0  0  0  0
   75.4753   38.7738   40.8936 H   0  0  0  0  0  0  0  0  0  0  0  0
   76.6461   38.4714   39.6165 H   0  0  0  0  0  0  0  0  0  0  0  0
  1  2  1  0  0  0  0
  1 21  1  0  0  0  0
  1 22  1  0  0  0  0
  2  3  1  0  0  0  0
  2 12  2  0  0  0  0
  3  9  2  0  0  0  0
  3  4  1  0  0  0  0
  4  5  2  0  0  0  0
  4  6  1  0  0  0  0
  6  7  1  0  0  0  0
 13  6  1  0  0  0  0
  7  8  2  0  0  0  0
  7  9  1  0  0  0  0
  9 10  1  0  0  0  0
 10 23  1  0  0  0  0
 10 11  2  0  0  0  0
 11 12  1  0  0  0  0
 11 24  1  0  0  0  0
 12 25  1  0  0  0  0
 13 26  1  0  0  0  0
 13 14  1  0  0  0  0
 13 20  1  0  0  0  0
 14 15  2  0  0  0  0
 14 16  1  0  0  0  0
 16 27  1  0  0  0  0
 16 17  1  0  0  0  0
 17 18  2  0  0  0  0
 17 19  1  0  0  0  0
 19 28  1  0  0  0  0
 19 29  1  0  0  0  0
 19 20  1  0  0  0  0
 20 30  1  0  0  0  0
 20 31  1  0  0  0  0
M  ZZC   1 n1
M  ZZC   2 c1
M  ZZC   3 c2
M  ZZC   4 c3
M  ZZC   5 o1
M  ZZC   6 n2
M  ZZC   7 c4
M  ZZC   8 o2
M  ZZC   9 c5
M  ZZC  10 c6
M  ZZC  11 c7
M  ZZC  12 c8
M  ZZC  13 c9
M  ZZC  14 c10
M  ZZC  15 o3
M  ZZC  16 n3
M  ZZC  17 c11
M  ZZC  18 o4
M  ZZC  19 c12
M  ZZC  20 c13
M  ZZC  21 h11
M  ZZC  22 h12
M  ZZC  23 h61
M  ZZC  24 h71
M  ZZC  25 h81
M  ZZC  26 h91
M  ZZC  27 h31
M  ZZC  28 h121
M  ZZC  29 h122
M  ZZC  30 h131
M  ZZC  31 h132
M  ZZM   1 40
M  ZZI   1 224
M  ZZM   2 37
M  ZZI   2 124
M  ZZM   3 37
M  ZZI   3 124
M  ZZM   4 3
M  ZZI   4 121
M  ZZM   5 7
M  ZZI   5 81
M  ZZM   6 10
M  ZZI   6 192
M  ZZM   7 3
M  ZZI   7 121
M  ZZM   8 7
M  ZZI   8 81
M  ZZM   9 37
M  ZZI   9 124
M  ZZM  10 37
M  ZZI  10 125
M  ZZM  11 37
M  ZZI  11 125
M  ZZM  12 37
M  ZZI  12 125
M  ZZM  13 1
M  ZZI  13 113
M  ZZM  14 3
M  ZZI  14 121
M  ZZM  15 7
M  ZZI  15 81
M  ZZM  16 10
M  ZZI  16 191
M  ZZM  17 3
M  ZZI  17 121
M  ZZM  18 7
M  ZZI  18 81
M  ZZM  19 1
M  ZZI  19 112
M  ZZM  20 1
M  ZZI  20 112
M  ZZM  21 28
M  ZZI  21 11
M  ZZM  22 28
M  ZZI  22 11
M  ZZM  23 5
M  ZZI  23 1
M  ZZM  24 5
M  ZZI  24 1
M  ZZM  25 5
M  ZZI  25 1
M  ZZM  26 5
M  ZZI  26 1
M  ZZM  27 28
M  ZZI  27 11
M  ZZM  28 5
M  ZZI  28 1
M  ZZM  29 5
M  ZZI  29 1
M  ZZM  30 5
M  ZZI  30 1
M  ZZM  31 5
M  ZZI  31 1
M  END
> <IX>
1

> <NAME>
Cereblon_6Y7K_9.pdb

> <Score>
-18.612441

> <Natom>
31

> <Nflex>
1

> <Hbond>
-3.670303

> <Hphob>
-3.569009

> <VwInt>
-24.340463

> <Dsolv>
14.985111

> <SolEl>
6.916153

> <Eintl>
1.669385

> <RecConf>
ND

> <projPath>
Cereblon_maps/

> <NAME_>
Cereblon_6Y7K_9.pdb

$$$$
