Cereblon_1EJ1_4.pdb
  MOLSOFT 04032206183D

 30 32  0  0  1  0  0  0  0  0999 V2000
   75.6755   37.9126   39.7416 C   0  0  0  0  0  0  0  0  0  0  0  0
   74.9833   39.0136   39.2663 C   0  0  0  0  0  0  0  0  0  0  0  0
   75.2990   40.2644   39.7160 C   0  0  0  0  0  0  0  0  0  0  0  0
   74.4148   41.2262   39.0566 C   0  0  0  0  0  0  0  0  0  0  0  0
   74.4215   42.4208   39.3118 O   0  0  0  0  0  0  0  0  0  0  0  0
   73.6383   40.5078   38.1594 N   0  0  0  0  0  0  0  0  0  0  0  0
   72.6041   41.0343   37.2531 C   0  0  1  0  0  0  0  0  0  0  0  0
   71.2822   41.2551   37.9868 C   0  0  0  0  0  0  0  0  0  0  0  0
   70.9233   40.5789   38.9400 O   0  0  0  0  0  0  0  0  0  0  0  0
   70.4450   42.2068   37.4509 N   0  0  0  0  0  0  0  0  0  0  0  0
   70.6544   43.0361   36.3812 C   0  0  0  0  0  0  0  0  0  0  0  0
   69.8501   43.9066   36.0851 O   0  0  0  0  0  0  0  0  0  0  0  0
   71.9148   42.7765   35.5961 C   0  0  0  0  0  0  0  0  0  0  0  0
   73.0338   42.2964   36.5063 C   0  0  0  0  0  0  0  0  0  0  0  0
   73.8750   39.0786   38.2771 C   0  0  0  0  0  0  0  0  0  0  0  0
   76.3043   40.5086   40.6340 C   0  0  0  0  0  0  0  0  0  0  0  0
   77.0018   39.4095   41.1128 C   0  0  0  0  0  0  0  0  0  0  0  0
   76.6889   38.1272   40.6690 C   0  0  0  0  0  0  0  0  0  0  0  0
   75.4429   36.9091   39.3992 H   0  0  0  0  0  0  0  0  0  0  0  0
   72.4137   40.2524   36.5085 H   0  0  0  0  0  0  0  0  0  0  0  0
   69.5732   42.3539   37.9380 H   0  0  0  0  0  0  0  0  0  0  0  0
   71.6942   42.0398   34.8162 H   0  0  0  0  0  0  0  0  0  0  0  0
   72.2103   43.7089   35.1106 H   0  0  0  0  0  0  0  0  0  0  0  0
   73.9353   42.0984   35.9176 H   0  0  0  0  0  0  0  0  0  0  0  0
   73.2870   43.0989   37.2047 H   0  0  0  0  0  0  0  0  0  0  0  0
   74.1654   38.6688   37.3039 H   0  0  0  0  0  0  0  0  0  0  0  0
   72.9708   38.5883   38.6536 H   0  0  0  0  0  0  0  0  0  0  0  0
   76.5476   41.5148   40.9597 H   0  0  0  0  0  0  0  0  0  0  0  0
   77.7986   39.5527   41.8363 H   0  0  0  0  0  0  0  0  0  0  0  0
   77.2491   37.2803   41.0525 H   0  0  0  0  0  0  0  0  0  0  0  0
  1 19  1  0  0  0  0
  1 18  2  0  0  0  0
  1  2  1  0  0  0  0
  2  3  2  0  0  0  0
  2 15  1  0  0  0  0
  3 16  1  0  0  0  0
  3  4  1  0  0  0  0
  4  6  1  0  0  0  0
  4  5  2  0  0  0  0
  6 15  1  0  0  0  0
  7  6  1  0  0  0  0
  7 20  1  0  0  0  0
  7  8  1  0  0  0  0
  7 14  1  0  0  0  0
  8  9  2  0  0  0  0
  8 10  1  0  0  0  0
 10 21  1  0  0  0  0
 10 11  1  0  0  0  0
 11 12  2  0  0  0  0
 11 13  1  0  0  0  0
 13 22  1  0  0  0  0
 13 23  1  0  0  0  0
 13 14  1  0  0  0  0
 14 24  1  0  0  0  0
 14 25  1  0  0  0  0
 15 26  1  0  0  0  0
 15 27  1  0  0  0  0
 16 17  2  0  0  0  0
 16 28  1  0  0  0  0
 17 18  1  0  0  0  0
 17 29  1  0  0  0  0
 18 30  1  0  0  0  0
M  ZZC   1 c1
M  ZZC   2 c2
M  ZZC   3 c3
M  ZZC   4 c4
M  ZZC   5 o1
M  ZZC   6 n1
M  ZZC   7 c5
M  ZZC   8 c6
M  ZZC   9 o2
M  ZZC  10 n2
M  ZZC  11 c7
M  ZZC  12 o3
M  ZZC  13 c8
M  ZZC  14 c9
M  ZZC  15 c10
M  ZZC  16 c11
M  ZZC  17 c12
M  ZZC  18 c13
M  ZZC  19 h11
M  ZZC  20 h51
M  ZZC  21 h21
M  ZZC  22 h81
M  ZZC  23 h82
M  ZZC  24 h91
M  ZZC  25 h92
M  ZZC  26 h101
M  ZZC  27 h102
M  ZZC  28 h111
M  ZZC  29 h121
M  ZZC  30 h131
M  ZZM   1 37
M  ZZI   1 125
M  ZZM   2 37
M  ZZI   2 124
M  ZZM   3 37
M  ZZI   3 124
M  ZZM   4 3
M  ZZI   4 121
M  ZZM   5 7
M  ZZI   5 81
M  ZZM   6 10
M  ZZI   6 192
M  ZZM   7 1
M  ZZI   7 113
M  ZZM   8 3
M  ZZI   8 121
M  ZZM   9 7
M  ZZI   9 81
M  ZZM  10 10
M  ZZI  10 191
M  ZZM  11 3
M  ZZI  11 121
M  ZZM  12 7
M  ZZI  12 81
M  ZZM  13 1
M  ZZI  13 112
M  ZZM  14 1
M  ZZI  14 112
M  ZZM  15 1
M  ZZI  15 112
M  ZZM  16 37
M  ZZI  16 125
M  ZZM  17 37
M  ZZI  17 125
M  ZZM  18 37
M  ZZI  18 125
M  ZZM  19 5
M  ZZI  19 1
M  ZZM  20 5
M  ZZI  20 1
M  ZZM  21 28
M  ZZI  21 11
M  ZZM  22 5
M  ZZI  22 1
M  ZZM  23 5
M  ZZI  23 1
M  ZZM  24 5
M  ZZI  24 1
M  ZZM  25 5
M  ZZI  25 1
M  ZZM  26 5
M  ZZI  26 1
M  ZZM  27 5
M  ZZI  27 1
M  ZZM  28 5
M  ZZI  28 1
M  ZZM  29 5
M  ZZI  29 1
M  ZZM  30 5
M  ZZI  30 1
M  END
> <IX>
1

> <NAME>
Cereblon_1EJ1_4.pdb

> <Score>
-20.636008

> <Natom>
30

> <Nflex>
1

> <Hbond>
-4.638039

> <Hphob>
-3.595529

> <VwInt>
-21.904964

> <Dsolv>
13.259526

> <SolEl>
5.814953

> <Eintl>
1.716142

> <RecConf>
ND

> <projPath>
Cereblon_maps/

> <NAME_>
Cereblon_1EJ1_4.pdb

$$$$
