Cereblon_5L2I_14.pdb
  MOLSOFT 04032206253D

 31 33  0  0  1  0  0  0  0  0999 V2000
   81.6208   53.0737   19.7079 N   0  0  0  0  0  0  0  0  0  0  0  0
   81.9324   54.4392   19.7382 C   0  0  0  0  0  0  0  0  0  0  0  0
   81.2300   55.3361   20.5250 C   0  0  0  0  0  0  0  0  0  0  0  0
   80.0292   55.1228   21.3281 C   0  0  0  0  0  0  0  0  0  0  0  0
   79.4226   54.0632   21.4018 O   0  0  0  0  0  0  0  0  0  0  0  0
   79.7592   56.3251   21.9450 N   0  0  0  0  0  0  0  0  0  0  0  0
   80.6708   57.2915   21.5739 C   0  0  0  0  0  0  0  0  0  0  0  0
   80.7437   58.4684   21.8958 O   0  0  0  0  0  0  0  0  0  0  0  0
   81.6090   56.6369   20.6655 C   0  0  0  0  0  0  0  0  0  0  0  0
   82.7255   57.1499   20.0322 C   0  0  0  0  0  0  0  0  0  0  0  0
   83.4594   56.2671   19.2502 C   0  0  0  0  0  0  0  0  0  0  0  0
   83.0785   54.9300   19.1255 C   0  0  0  0  0  0  0  0  0  0  0  0
   78.6162   56.5113   22.8385 C   0  0  2  0  0  0  0  0  0  0  0  0
   77.4660   57.1874   22.1170 C   0  0  0  0  0  0  0  0  0  0  0  0
   77.3304   57.1792   20.9025 O   0  0  0  0  0  0  0  0  0  0  0  0
   76.5164   57.7376   22.9450 N   0  0  0  0  0  0  0  0  0  0  0  0
   76.4983   57.7899   24.3182 C   0  0  0  0  0  0  0  0  0  0  0  0
   75.5313   58.2109   24.9323 O   0  0  0  0  0  0  0  0  0  0  0  0
   77.7202   57.2482   25.0221 C   0  0  0  0  0  0  0  0  0  0  0  0
   78.9339   57.2857   24.1138 C   0  0  0  0  0  0  0  0  0  0  0  0
   82.0367   52.5275   18.9586 H   0  0  0  0  0  0  0  0  0  0  0  0
   80.6528   52.8405   19.9286 H   0  0  0  0  0  0  0  0  0  0  0  0
   83.0235   58.1873   20.1500 H   0  0  0  0  0  0  0  0  0  0  0  0
   84.3531   56.6175   18.7409 H   0  0  0  0  0  0  0  0  0  0  0  0
   83.6895   54.2564   18.5333 H   0  0  0  0  0  0  0  0  0  0  0  0
   78.2504   55.5145   23.0997 H   0  0  0  0  0  0  0  0  0  0  0  0
   75.7231   58.1576   22.4794 H   0  0  0  0  0  0  0  0  0  0  0  0
   77.9072   57.8469   25.9193 H   0  0  0  0  0  0  0  0  0  0  0  0
   77.5102   56.2226   25.3351 H   0  0  0  0  0  0  0  0  0  0  0  0
   79.1859   58.3279   23.8903 H   0  0  0  0  0  0  0  0  0  0  0  0
   79.7968   56.8527   24.6276 H   0  0  0  0  0  0  0  0  0  0  0  0
  1  2  1  0  0  0  0
  1 21  1  0  0  0  0
  1 22  1  0  0  0  0
  2  3  1  0  0  0  0
  2 12  2  0  0  0  0
  3  9  2  0  0  0  0
  3  4  1  0  0  0  0
  4  5  2  0  0  0  0
  4  6  1  0  0  0  0
  6  7  1  0  0  0  0
 13  6  1  0  0  0  0
  7  8  2  0  0  0  0
  7  9  1  0  0  0  0
  9 10  1  0  0  0  0
 10 23  1  0  0  0  0
 10 11  2  0  0  0  0
 11 12  1  0  0  0  0
 11 24  1  0  0  0  0
 12 25  1  0  0  0  0
 13 26  1  0  0  0  0
 13 14  1  0  0  0  0
 13 20  1  0  0  0  0
 14 15  2  0  0  0  0
 14 16  1  0  0  0  0
 16 27  1  0  0  0  0
 16 17  1  0  0  0  0
 17 18  2  0  0  0  0
 17 19  1  0  0  0  0
 19 28  1  0  0  0  0
 19 29  1  0  0  0  0
 19 20  1  0  0  0  0
 20 30  1  0  0  0  0
 20 31  1  0  0  0  0
M  ZZC   1 n1
M  ZZC   2 c1
M  ZZC   3 c2
M  ZZC   4 c3
M  ZZC   5 o1
M  ZZC   6 n2
M  ZZC   7 c4
M  ZZC   8 o2
M  ZZC   9 c5
M  ZZC  10 c6
M  ZZC  11 c7
M  ZZC  12 c8
M  ZZC  13 c9
M  ZZC  14 c10
M  ZZC  15 o3
M  ZZC  16 n3
M  ZZC  17 c11
M  ZZC  18 o4
M  ZZC  19 c12
M  ZZC  20 c13
M  ZZC  21 h11
M  ZZC  22 h12
M  ZZC  23 h61
M  ZZC  24 h71
M  ZZC  25 h81
M  ZZC  26 h91
M  ZZC  27 h31
M  ZZC  28 h121
M  ZZC  29 h122
M  ZZC  30 h131
M  ZZC  31 h132
M  ZZM   1 40
M  ZZI   1 224
M  ZZM   2 37
M  ZZI   2 124
M  ZZM   3 37
M  ZZI   3 124
M  ZZM   4 3
M  ZZI   4 121
M  ZZM   5 7
M  ZZI   5 81
M  ZZM   6 10
M  ZZI   6 192
M  ZZM   7 3
M  ZZI   7 121
M  ZZM   8 7
M  ZZI   8 81
M  ZZM   9 37
M  ZZI   9 124
M  ZZM  10 37
M  ZZI  10 125
M  ZZM  11 37
M  ZZI  11 125
M  ZZM  12 37
M  ZZI  12 125
M  ZZM  13 1
M  ZZI  13 113
M  ZZM  14 3
M  ZZI  14 121
M  ZZM  15 7
M  ZZI  15 81
M  ZZM  16 10
M  ZZI  16 191
M  ZZM  17 3
M  ZZI  17 121
M  ZZM  18 7
M  ZZI  18 81
M  ZZM  19 1
M  ZZI  19 112
M  ZZM  20 1
M  ZZI  20 112
M  ZZM  21 28
M  ZZI  21 11
M  ZZM  22 28
M  ZZI  22 11
M  ZZM  23 5
M  ZZI  23 1
M  ZZM  24 5
M  ZZI  24 1
M  ZZM  25 5
M  ZZI  25 1
M  ZZM  26 5
M  ZZI  26 1
M  ZZM  27 28
M  ZZI  27 11
M  ZZM  28 5
M  ZZI  28 1
M  ZZM  29 5
M  ZZI  29 1
M  ZZM  30 5
M  ZZI  30 1
M  ZZM  31 5
M  ZZI  31 1
M  END
> <IX>
1

> <NAME>
Cereblon_5L2I_14.pdb

> <Score>
-23.178971

> <Natom>
31

> <Nflex>
1

> <Hbond>
-4.483907

> <Hphob>
-3.327162

> <VwInt>
-24.616815

> <Dsolv>
13.964387

> <SolEl>
5.180468

> <Eintl>
0.864878

> <RecConf>
ND

> <projPath>
Cereblon_maps/

> <NAME_>
Cereblon_5L2I_14.pdb

$$$$
