Cereblon_2WXL_5.pdb
  MOLSOFT 04032206203D

 29 31  0  0  1  0  0  0  0  0999 V2000
   78.9950   42.4724   42.6769 C   0  0  0  0  0  0  0  0  0  0  0  0
   78.1782   42.1824   41.5988 C   0  0  0  0  0  0  0  0  0  0  0  0
   77.2624   41.0643   41.4073 C   0  0  0  0  0  0  0  0  0  0  0  0
   77.0842   40.1990   42.2507 O   0  0  0  0  0  0  0  0  0  0  0  0
   76.7199   41.2130   40.1443 N   0  0  0  0  0  0  0  0  0  0  0  0
   77.2189   42.3411   39.5250 C   0  0  0  0  0  0  0  0  0  0  0  0
   76.9877   42.7615   38.3987 O   0  0  0  0  0  0  0  0  0  0  0  0
   78.1527   42.9495   40.4731 C   0  0  0  0  0  0  0  0  0  0  0  0
   78.9529   44.0656   40.3364 C   0  0  0  0  0  0  0  0  0  0  0  0
   79.7942   44.3709   41.4007 C   0  0  0  0  0  0  0  0  0  0  0  0
   79.8160   43.5871   42.5551 C   0  0  0  0  0  0  0  0  0  0  0  0
   75.7105   40.3620   39.5083 C   0  0  2  0  0  0  0  0  0  0  0  0
   74.3316   40.9359   39.7925 C   0  0  0  0  0  0  0  0  0  0  0  0
   74.1480   42.1219   40.0106 O   0  0  0  0  0  0  0  0  0  0  0  0
   73.2782   40.0582   39.7098 N   0  0  0  0  0  0  0  0  0  0  0  0
   73.3121   38.7129   39.4345 C   0  0  0  0  0  0  0  0  0  0  0  0
   72.2941   38.0438   39.3674 O   0  0  0  0  0  0  0  0  0  0  0  0
   74.6760   38.1254   39.1661 C   0  0  0  0  0  0  0  0  0  0  0  0
   75.7571   38.8900   39.9095 C   0  0  0  0  0  0  0  0  0  0  0  0
   79.0012   41.8563   43.5718 H   0  0  0  0  0  0  0  0  0  0  0  0
   78.9257   44.6702   39.4376 H   0  0  0  0  0  0  0  0  0  0  0  0
   80.4444   45.2355   41.3333 H   0  0  0  0  0  0  0  0  0  0  0  0
   80.4837   43.8514   43.3702 H   0  0  0  0  0  0  0  0  0  0  0  0
   75.8549   40.4503   38.4295 H   0  0  0  0  0  0  0  0  0  0  0  0
   72.3605   40.4546   39.8703 H   0  0  0  0  0  0  0  0  0  0  0  0
   74.6759   37.0803   39.4917 H   0  0  0  0  0  0  0  0  0  0  0  0
   74.8444   38.1468   38.0850 H   0  0  0  0  0  0  0  0  0  0  0  0
   75.5874   38.7711   40.9834 H   0  0  0  0  0  0  0  0  0  0  0  0
   76.7420   38.4637   39.6927 H   0  0  0  0  0  0  0  0  0  0  0  0
  1 20  1  0  0  0  0
  1  2  1  0  0  0  0
  1 11  2  0  0  0  0
  2  3  1  0  0  0  0
  2  8  2  0  0  0  0
  3  4  2  0  0  0  0
  3  5  1  0  0  0  0
  5  6  1  0  0  0  0
 12  5  1  0  0  0  0
  6  7  2  0  0  0  0
  6  8  1  0  0  0  0
  8  9  1  0  0  0  0
  9 21  1  0  0  0  0
  9 10  2  0  0  0  0
 10 22  1  0  0  0  0
 10 11  1  0  0  0  0
 11 23  1  0  0  0  0
 12 24  1  0  0  0  0
 12 13  1  0  0  0  0
 12 19  1  0  0  0  0
 13 14  2  0  0  0  0
 13 15  1  0  0  0  0
 15 25  1  0  0  0  0
 15 16  1  0  0  0  0
 16 17  2  0  0  0  0
 16 18  1  0  0  0  0
 18 26  1  0  0  0  0
 18 27  1  0  0  0  0
 18 19  1  0  0  0  0
 19 28  1  0  0  0  0
 19 29  1  0  0  0  0
M  ZZC   1 c1
M  ZZC   2 c2
M  ZZC   3 c3
M  ZZC   4 o1
M  ZZC   5 n1
M  ZZC   6 c4
M  ZZC   7 o2
M  ZZC   8 c5
M  ZZC   9 c6
M  ZZC  10 c7
M  ZZC  11 c8
M  ZZC  12 c9
M  ZZC  13 c10
M  ZZC  14 o3
M  ZZC  15 n2
M  ZZC  16 c11
M  ZZC  17 o4
M  ZZC  18 c12
M  ZZC  19 c13
M  ZZC  20 h11
M  ZZC  21 h61
M  ZZC  22 h71
M  ZZC  23 h81
M  ZZC  24 h91
M  ZZC  25 h21
M  ZZC  26 h121
M  ZZC  27 h122
M  ZZC  28 h131
M  ZZC  29 h132
M  ZZM   1 37
M  ZZI   1 125
M  ZZM   2 37
M  ZZI   2 124
M  ZZM   3 3
M  ZZI   3 121
M  ZZM   4 7
M  ZZI   4 81
M  ZZM   5 10
M  ZZI   5 192
M  ZZM   6 3
M  ZZI   6 121
M  ZZM   7 7
M  ZZI   7 81
M  ZZM   8 37
M  ZZI   8 124
M  ZZM   9 37
M  ZZI   9 125
M  ZZM  10 37
M  ZZI  10 125
M  ZZM  11 37
M  ZZI  11 125
M  ZZM  12 1
M  ZZI  12 113
M  ZZM  13 3
M  ZZI  13 121
M  ZZM  14 7
M  ZZI  14 81
M  ZZM  15 10
M  ZZI  15 191
M  ZZM  16 3
M  ZZI  16 121
M  ZZM  17 7
M  ZZI  17 81
M  ZZM  18 1
M  ZZI  18 112
M  ZZM  19 1
M  ZZI  19 112
M  ZZM  20 5
M  ZZI  20 1
M  ZZM  21 5
M  ZZI  21 1
M  ZZM  22 5
M  ZZI  22 1
M  ZZM  23 5
M  ZZI  23 1
M  ZZM  24 5
M  ZZI  24 1
M  ZZM  25 28
M  ZZI  25 11
M  ZZM  26 5
M  ZZI  26 1
M  ZZM  27 5
M  ZZI  27 1
M  ZZM  28 5
M  ZZI  28 1
M  ZZM  29 5
M  ZZI  29 1
M  END
> <IX>
1

> <NAME>
Cereblon_2WXL_5.pdb

> <Score>
-19.511095

> <Natom>
29

> <Nflex>
1

> <Hbond>
-3.369189

> <Hphob>
-3.54654

> <VwInt>
-22.750551

> <Dsolv>
12.079387

> <SolEl>
5.402428

> <Eintl>
1.524237

> <RecConf>
ND

> <projPath>
Cereblon_maps/

> <NAME_>
Cereblon_2WXL_5.pdb

$$$$
