Cereblon_6XJK_15.pdb
  MOLSOFT 04032206293D

 30 32  0  0  1  0  0  0  0  0999 V2000
   78.9587   42.3483   42.8079 C   0  0  0  0  0  0  0  0  0  0  0  0
   78.1526   42.0554   41.7202 C   0  0  0  0  0  0  0  0  0  0  0  0
   78.1605   42.8619   40.6129 C   0  0  0  0  0  0  0  0  0  0  0  0
   77.2309   42.3016   39.6244 C   0  0  0  0  0  0  0  0  0  0  0  0
   77.0130   42.7684   38.5137 O   0  0  0  0  0  0  0  0  0  0  0  0
   76.7057   41.1568   40.1920 N   0  0  0  0  0  0  0  0  0  0  0  0
   75.6905   40.3308   39.5337 C   0  0  2  0  0  0  0  0  0  0  0  0
   74.3083   40.9169   39.7941 C   0  0  0  0  0  0  0  0  0  0  0  0
   74.1224   42.1047   40.0021 O   0  0  0  0  0  0  0  0  0  0  0  0
   73.2518   40.0435   39.7090 N   0  0  0  0  0  0  0  0  0  0  0  0
   73.2812   38.6946   39.4550 C   0  0  0  0  0  0  0  0  0  0  0  0
   72.2602   38.0296   39.3929 O   0  0  0  0  0  0  0  0  0  0  0  0
   74.6435   38.0967   39.2046 C   0  0  0  0  0  0  0  0  0  0  0  0
   75.7269   38.8628   39.9424 C   0  0  0  0  0  0  0  0  0  0  0  0
   77.2285   40.9103   41.5261 C   0  0  0  0  0  0  0  0  0  0  0  0
   78.9664   43.9786   40.5056 C   0  0  0  0  0  0  0  0  0  0  0  0
   79.7869   44.2695   41.5867 C   0  0  0  0  0  0  0  0  0  0  0  0
   79.7816   43.4652   42.7243 C   0  0  0  0  0  0  0  0  0  0  0  0
   78.9585   41.7224   43.6956 H   0  0  0  0  0  0  0  0  0  0  0  0
   75.8543   40.4214   38.4577 H   0  0  0  0  0  0  0  0  0  0  0  0
   72.3353   40.4487   39.8530 H   0  0  0  0  0  0  0  0  0  0  0  0
   74.6356   37.0549   39.5405 H   0  0  0  0  0  0  0  0  0  0  0  0
   74.8207   38.1038   38.1245 H   0  0  0  0  0  0  0  0  0  0  0  0
   75.5707   38.7581   41.0208 H   0  0  0  0  0  0  0  0  0  0  0  0
   76.7079   38.4296   39.7212 H   0  0  0  0  0  0  0  0  0  0  0  0
   77.7705   39.9587   41.5387 H   0  0  0  0  0  0  0  0  0  0  0  0
   76.4187   40.9109   42.2587 H   0  0  0  0  0  0  0  0  0  0  0  0
   78.9549   44.5981   39.6162 H   0  0  0  0  0  0  0  0  0  0  0  0
   80.4343   45.1382   41.5486 H   0  0  0  0  0  0  0  0  0  0  0  0
   80.4309   43.7137   43.5586 H   0  0  0  0  0  0  0  0  0  0  0  0
  1 19  1  0  0  0  0
  1 18  2  0  0  0  0
  1  2  1  0  0  0  0
  2  3  2  0  0  0  0
  2 15  1  0  0  0  0
  3 16  1  0  0  0  0
  3  4  1  0  0  0  0
  4  6  1  0  0  0  0
  4  5  2  0  0  0  0
  6 15  1  0  0  0  0
  7  6  1  0  0  0  0
  7 20  1  0  0  0  0
  7  8  1  0  0  0  0
  7 14  1  0  0  0  0
  8  9  2  0  0  0  0
  8 10  1  0  0  0  0
 10 21  1  0  0  0  0
 10 11  1  0  0  0  0
 11 12  2  0  0  0  0
 11 13  1  0  0  0  0
 13 22  1  0  0  0  0
 13 23  1  0  0  0  0
 13 14  1  0  0  0  0
 14 24  1  0  0  0  0
 14 25  1  0  0  0  0
 15 26  1  0  0  0  0
 15 27  1  0  0  0  0
 16 17  2  0  0  0  0
 16 28  1  0  0  0  0
 17 18  1  0  0  0  0
 17 29  1  0  0  0  0
 18 30  1  0  0  0  0
M  ZZC   1 c1
M  ZZC   2 c2
M  ZZC   3 c3
M  ZZC   4 c4
M  ZZC   5 o1
M  ZZC   6 n1
M  ZZC   7 c5
M  ZZC   8 c6
M  ZZC   9 o2
M  ZZC  10 n2
M  ZZC  11 c7
M  ZZC  12 o3
M  ZZC  13 c8
M  ZZC  14 c9
M  ZZC  15 c10
M  ZZC  16 c11
M  ZZC  17 c12
M  ZZC  18 c13
M  ZZC  19 h11
M  ZZC  20 h51
M  ZZC  21 h21
M  ZZC  22 h81
M  ZZC  23 h82
M  ZZC  24 h91
M  ZZC  25 h92
M  ZZC  26 h101
M  ZZC  27 h102
M  ZZC  28 h111
M  ZZC  29 h121
M  ZZC  30 h131
M  ZZM   1 37
M  ZZI   1 125
M  ZZM   2 37
M  ZZI   2 124
M  ZZM   3 37
M  ZZI   3 124
M  ZZM   4 3
M  ZZI   4 121
M  ZZM   5 7
M  ZZI   5 81
M  ZZM   6 10
M  ZZI   6 192
M  ZZM   7 1
M  ZZI   7 113
M  ZZM   8 3
M  ZZI   8 121
M  ZZM   9 7
M  ZZI   9 81
M  ZZM  10 10
M  ZZI  10 191
M  ZZM  11 3
M  ZZI  11 121
M  ZZM  12 7
M  ZZI  12 81
M  ZZM  13 1
M  ZZI  13 112
M  ZZM  14 1
M  ZZI  14 112
M  ZZM  15 1
M  ZZI  15 112
M  ZZM  16 37
M  ZZI  16 125
M  ZZM  17 37
M  ZZI  17 125
M  ZZM  18 37
M  ZZI  18 125
M  ZZM  19 5
M  ZZI  19 1
M  ZZM  20 5
M  ZZI  20 1
M  ZZM  21 28
M  ZZI  21 11
M  ZZM  22 5
M  ZZI  22 1
M  ZZM  23 5
M  ZZI  23 1
M  ZZM  24 5
M  ZZI  24 1
M  ZZM  25 5
M  ZZI  25 1
M  ZZM  26 5
M  ZZI  26 1
M  ZZM  27 5
M  ZZI  27 1
M  ZZM  28 5
M  ZZI  28 1
M  ZZM  29 5
M  ZZI  29 1
M  ZZM  30 5
M  ZZI  30 1
M  END
> <IX>
1

> <NAME>
Cereblon_6XJK_15.pdb

> <Score>
-18.702014

> <Natom>
30

> <Nflex>
1

> <Hbond>
-3.265154

> <Hphob>
-3.81322

> <VwInt>
-21.080322

> <Dsolv>
10.978713

> <SolEl>
5.658708

> <Eintl>
1.042041

> <RecConf>
ND

> <projPath>
Cereblon_maps/

> <NAME_>
Cereblon_6XJK_15.pdb

$$$$
