Cereblon_5E80_5.pdb
  MOLSOFT 04032206243D

 31 33  0  0  1  0  0  0  0  0999 V2000
   78.8170   41.6835   43.8100 N   0  0  0  0  0  0  0  0  0  0  0  0
   78.8994   42.4346   42.6276 C   0  0  0  0  0  0  0  0  0  0  0  0
   78.0970   42.1631   41.5324 C   0  0  0  0  0  0  0  0  0  0  0  0
   77.1756   41.0524   41.3281 C   0  0  0  0  0  0  0  0  0  0  0  0
   76.9917   40.1735   42.1571 O   0  0  0  0  0  0  0  0  0  0  0  0
   76.6419   41.2132   40.0649 N   0  0  0  0  0  0  0  0  0  0  0  0
   77.1638   42.3321   39.4482 C   0  0  0  0  0  0  0  0  0  0  0  0
   76.9518   42.7509   38.3176 O   0  0  0  0  0  0  0  0  0  0  0  0
   78.0949   42.9300   40.4068 C   0  0  0  0  0  0  0  0  0  0  0  0
   78.9068   44.0387   40.2834 C   0  0  0  0  0  0  0  0  0  0  0  0
   79.7246   44.3399   41.3664 C   0  0  0  0  0  0  0  0  0  0  0  0
   79.7115   43.5599   42.5243 C   0  0  0  0  0  0  0  0  0  0  0  0
   75.6224   40.3753   39.4299 C   0  0  2  0  0  0  0  0  0  0  0  0
   74.2511   40.9540   39.7339 C   0  0  0  0  0  0  0  0  0  0  0  0
   74.0807   42.1339   39.9921 O   0  0  0  0  0  0  0  0  0  0  0  0
   73.1905   40.0891   39.6172 N   0  0  0  0  0  0  0  0  0  0  0  0
   73.2158   38.7515   39.3044 C   0  0  0  0  0  0  0  0  0  0  0  0
   72.1908   38.0995   39.1908 O   0  0  0  0  0  0  0  0  0  0  0  0
   74.5795   38.1509   39.0580 C   0  0  0  0  0  0  0  0  0  0  0  0
   75.6561   38.9019   39.8216 C   0  0  0  0  0  0  0  0  0  0  0  0
   79.5303   41.7899   44.5282 H   0  0  0  0  0  0  0  0  0  0  0  0
   78.2875   40.8102   43.7924 H   0  0  0  0  0  0  0  0  0  0  0  0
   78.8997   44.6440   39.3846 H   0  0  0  0  0  0  0  0  0  0  0  0
   80.3758   45.2055   41.3185 H   0  0  0  0  0  0  0  0  0  0  0  0
   80.3470   43.8406   43.3587 H   0  0  0  0  0  0  0  0  0  0  0  0
   75.7568   40.4734   38.3515 H   0  0  0  0  0  0  0  0  0  0  0  0
   72.2750   40.4913   39.7756 H   0  0  0  0  0  0  0  0  0  0  0  0
   74.5627   37.1043   39.3783 H   0  0  0  0  0  0  0  0  0  0  0  0
   74.7702   38.1724   37.9806 H   0  0  0  0  0  0  0  0  0  0  0  0
   75.4706   38.7762   40.8923 H   0  0  0  0  0  0  0  0  0  0  0  0
   76.6412   38.4712   39.6156 H   0  0  0  0  0  0  0  0  0  0  0  0
  1  2  1  0  0  0  0
  1 21  1  0  0  0  0
  1 22  1  0  0  0  0
  2  3  1  0  0  0  0
  2 12  2  0  0  0  0
  3  9  2  0  0  0  0
  3  4  1  0  0  0  0
  4  5  2  0  0  0  0
  4  6  1  0  0  0  0
  6  7  1  0  0  0  0
 13  6  1  0  0  0  0
  7  8  2  0  0  0  0
  7  9  1  0  0  0  0
  9 10  1  0  0  0  0
 10 23  1  0  0  0  0
 10 11  2  0  0  0  0
 11 12  1  0  0  0  0
 11 24  1  0  0  0  0
 12 25  1  0  0  0  0
 13 26  1  0  0  0  0
 13 14  1  0  0  0  0
 13 20  1  0  0  0  0
 14 15  2  0  0  0  0
 14 16  1  0  0  0  0
 16 27  1  0  0  0  0
 16 17  1  0  0  0  0
 17 18  2  0  0  0  0
 17 19  1  0  0  0  0
 19 28  1  0  0  0  0
 19 29  1  0  0  0  0
 19 20  1  0  0  0  0
 20 30  1  0  0  0  0
 20 31  1  0  0  0  0
M  ZZC   1 n1
M  ZZC   2 c1
M  ZZC   3 c2
M  ZZC   4 c3
M  ZZC   5 o1
M  ZZC   6 n2
M  ZZC   7 c4
M  ZZC   8 o2
M  ZZC   9 c5
M  ZZC  10 c6
M  ZZC  11 c7
M  ZZC  12 c8
M  ZZC  13 c9
M  ZZC  14 c10
M  ZZC  15 o3
M  ZZC  16 n3
M  ZZC  17 c11
M  ZZC  18 o4
M  ZZC  19 c12
M  ZZC  20 c13
M  ZZC  21 h11
M  ZZC  22 h12
M  ZZC  23 h61
M  ZZC  24 h71
M  ZZC  25 h81
M  ZZC  26 h91
M  ZZC  27 h31
M  ZZC  28 h121
M  ZZC  29 h122
M  ZZC  30 h131
M  ZZC  31 h132
M  ZZM   1 40
M  ZZI   1 224
M  ZZM   2 37
M  ZZI   2 124
M  ZZM   3 37
M  ZZI   3 124
M  ZZM   4 3
M  ZZI   4 121
M  ZZM   5 7
M  ZZI   5 81
M  ZZM   6 10
M  ZZI   6 192
M  ZZM   7 3
M  ZZI   7 121
M  ZZM   8 7
M  ZZI   8 81
M  ZZM   9 37
M  ZZI   9 124
M  ZZM  10 37
M  ZZI  10 125
M  ZZM  11 37
M  ZZI  11 125
M  ZZM  12 37
M  ZZI  12 125
M  ZZM  13 1
M  ZZI  13 113
M  ZZM  14 3
M  ZZI  14 121
M  ZZM  15 7
M  ZZI  15 81
M  ZZM  16 10
M  ZZI  16 191
M  ZZM  17 3
M  ZZI  17 121
M  ZZM  18 7
M  ZZI  18 81
M  ZZM  19 1
M  ZZI  19 112
M  ZZM  20 1
M  ZZI  20 112
M  ZZM  21 28
M  ZZI  21 11
M  ZZM  22 28
M  ZZI  22 11
M  ZZM  23 5
M  ZZI  23 1
M  ZZM  24 5
M  ZZI  24 1
M  ZZM  25 5
M  ZZI  25 1
M  ZZM  26 5
M  ZZI  26 1
M  ZZM  27 28
M  ZZI  27 11
M  ZZM  28 5
M  ZZI  28 1
M  ZZM  29 5
M  ZZI  29 1
M  ZZM  30 5
M  ZZI  30 1
M  ZZM  31 5
M  ZZI  31 1
M  END
> <IX>
1

> <NAME>
Cereblon_5E80_5.pdb

> <Score>
-18.222941

> <Natom>
31

> <Nflex>
1

> <Hbond>
-3.58529

> <Hphob>
-3.534469

> <VwInt>
-24.338262

> <Dsolv>
15.220678

> <SolEl>
6.877788

> <Eintl>
1.665585

> <RecConf>
ND

> <projPath>
Cereblon_maps/

> <NAME_>
Cereblon_5E80_5.pdb

$$$$
