Cereblon_5J8O_15.pdb
  MOLSOFT 04032206253D

 31 33  0  0  1  0  0  0  0  0999 V2000
   81.6202   53.0730   19.7085 N   0  0  0  0  0  0  0  0  0  0  0  0
   81.9315   54.4385   19.7379 C   0  0  0  0  0  0  0  0  0  0  0  0
   81.2293   55.3355   20.5247 C   0  0  0  0  0  0  0  0  0  0  0  0
   80.0285   55.1222   21.3279 C   0  0  0  0  0  0  0  0  0  0  0  0
   79.4222   54.0624   21.4021 O   0  0  0  0  0  0  0  0  0  0  0  0
   79.7579   56.3247   21.9440 N   0  0  0  0  0  0  0  0  0  0  0  0
   80.6698   57.2910   21.5733 C   0  0  0  0  0  0  0  0  0  0  0  0
   80.7423   58.4681   21.8949 O   0  0  0  0  0  0  0  0  0  0  0  0
   81.6085   56.6362   20.6654 C   0  0  0  0  0  0  0  0  0  0  0  0
   82.7249   57.1492   20.0321 C   0  0  0  0  0  0  0  0  0  0  0  0
   83.4586   56.2663   19.2499 C   0  0  0  0  0  0  0  0  0  0  0  0
   83.0775   54.9293   19.1252 C   0  0  0  0  0  0  0  0  0  0  0  0
   78.6153   56.5104   22.8380 C   0  0  2  0  0  0  0  0  0  0  0  0
   77.4656   57.1876   22.1167 C   0  0  0  0  0  0  0  0  0  0  0  0
   77.3296   57.1801   20.9022 O   0  0  0  0  0  0  0  0  0  0  0  0
   76.5168   57.7384   22.9452 N   0  0  0  0  0  0  0  0  0  0  0  0
   76.4987   57.7905   24.3184 C   0  0  0  0  0  0  0  0  0  0  0  0
   75.5318   58.2117   24.9325 O   0  0  0  0  0  0  0  0  0  0  0  0
   77.7203   57.2479   25.0222 C   0  0  0  0  0  0  0  0  0  0  0  0
   78.9336   57.2842   24.1135 C   0  0  0  0  0  0  0  0  0  0  0  0
   82.0374   52.5259   18.9606 H   0  0  0  0  0  0  0  0  0  0  0  0
   80.6523   52.8394   19.9291 H   0  0  0  0  0  0  0  0  0  0  0  0
   83.0227   58.1866   20.1497 H   0  0  0  0  0  0  0  0  0  0  0  0
   84.3522   56.6168   18.7406 H   0  0  0  0  0  0  0  0  0  0  0  0
   83.6889   54.2554   18.5335 H   0  0  0  0  0  0  0  0  0  0  0  0
   78.2486   55.5138   23.0986 H   0  0  0  0  0  0  0  0  0  0  0  0
   75.7238   58.1590   22.4796 H   0  0  0  0  0  0  0  0  0  0  0  0
   77.9085   57.8473   25.9186 H   0  0  0  0  0  0  0  0  0  0  0  0
   77.5100   56.2228   25.3362 H   0  0  0  0  0  0  0  0  0  0  0  0
   79.1876   58.3261   23.8908 H   0  0  0  0  0  0  0  0  0  0  0  0
   79.7957   56.8493   24.6272 H   0  0  0  0  0  0  0  0  0  0  0  0
  1  2  1  0  0  0  0
  1 21  1  0  0  0  0
  1 22  1  0  0  0  0
  2  3  1  0  0  0  0
  2 12  2  0  0  0  0
  3  9  2  0  0  0  0
  3  4  1  0  0  0  0
  4  5  2  0  0  0  0
  4  6  1  0  0  0  0
  6  7  1  0  0  0  0
 13  6  1  0  0  0  0
  7  8  2  0  0  0  0
  7  9  1  0  0  0  0
  9 10  1  0  0  0  0
 10 23  1  0  0  0  0
 10 11  2  0  0  0  0
 11 12  1  0  0  0  0
 11 24  1  0  0  0  0
 12 25  1  0  0  0  0
 13 26  1  0  0  0  0
 13 14  1  0  0  0  0
 13 20  1  0  0  0  0
 14 15  2  0  0  0  0
 14 16  1  0  0  0  0
 16 27  1  0  0  0  0
 16 17  1  0  0  0  0
 17 18  2  0  0  0  0
 17 19  1  0  0  0  0
 19 28  1  0  0  0  0
 19 29  1  0  0  0  0
 19 20  1  0  0  0  0
 20 30  1  0  0  0  0
 20 31  1  0  0  0  0
M  ZZC   1 n1
M  ZZC   2 c1
M  ZZC   3 c2
M  ZZC   4 c3
M  ZZC   5 o1
M  ZZC   6 n2
M  ZZC   7 c4
M  ZZC   8 o2
M  ZZC   9 c5
M  ZZC  10 c6
M  ZZC  11 c7
M  ZZC  12 c8
M  ZZC  13 c9
M  ZZC  14 c10
M  ZZC  15 o3
M  ZZC  16 n3
M  ZZC  17 c11
M  ZZC  18 o4
M  ZZC  19 c12
M  ZZC  20 c13
M  ZZC  21 h11
M  ZZC  22 h12
M  ZZC  23 h61
M  ZZC  24 h71
M  ZZC  25 h81
M  ZZC  26 h91
M  ZZC  27 h31
M  ZZC  28 h121
M  ZZC  29 h122
M  ZZC  30 h131
M  ZZC  31 h132
M  ZZM   1 40
M  ZZI   1 224
M  ZZM   2 37
M  ZZI   2 124
M  ZZM   3 37
M  ZZI   3 124
M  ZZM   4 3
M  ZZI   4 121
M  ZZM   5 7
M  ZZI   5 81
M  ZZM   6 10
M  ZZI   6 192
M  ZZM   7 3
M  ZZI   7 121
M  ZZM   8 7
M  ZZI   8 81
M  ZZM   9 37
M  ZZI   9 124
M  ZZM  10 37
M  ZZI  10 125
M  ZZM  11 37
M  ZZI  11 125
M  ZZM  12 37
M  ZZI  12 125
M  ZZM  13 1
M  ZZI  13 113
M  ZZM  14 3
M  ZZI  14 121
M  ZZM  15 7
M  ZZI  15 81
M  ZZM  16 10
M  ZZI  16 191
M  ZZM  17 3
M  ZZI  17 121
M  ZZM  18 7
M  ZZI  18 81
M  ZZM  19 1
M  ZZI  19 112
M  ZZM  20 1
M  ZZI  20 112
M  ZZM  21 28
M  ZZI  21 11
M  ZZM  22 28
M  ZZI  22 11
M  ZZM  23 5
M  ZZI  23 1
M  ZZM  24 5
M  ZZI  24 1
M  ZZM  25 5
M  ZZI  25 1
M  ZZM  26 5
M  ZZI  26 1
M  ZZM  27 28
M  ZZI  27 11
M  ZZM  28 5
M  ZZI  28 1
M  ZZM  29 5
M  ZZI  29 1
M  ZZM  30 5
M  ZZI  30 1
M  ZZM  31 5
M  ZZI  31 1
M  END
> <IX>
1

> <NAME>
Cereblon_5J8O_15.pdb

> <Score>
-23.308862

> <Natom>
31

> <Nflex>
1

> <Hbond>
-4.464487

> <Hphob>
-3.330622

> <VwInt>
-24.632985

> <Dsolv>
13.91873

> <SolEl>
5.065179

> <Eintl>
0.781211

> <RecConf>
ND

> <projPath>
Cereblon_maps/

> <NAME_>
Cereblon_5J8O_15.pdb

$$$$
