Cereblon_5J8O_13.pdb
  MOLSOFT 04032206253D

 31 33  0  0  1  0  0  0  0  0999 V2000
   78.8151   41.6781   43.8064 N   0  0  0  0  0  0  0  0  0  0  0  0
   78.8968   42.4310   42.6253 C   0  0  0  0  0  0  0  0  0  0  0  0
   78.0942   42.1611   41.5300 C   0  0  0  0  0  0  0  0  0  0  0  0
   77.1734   41.0503   41.3242 C   0  0  0  0  0  0  0  0  0  0  0  0
   76.9905   40.1702   42.1518 O   0  0  0  0  0  0  0  0  0  0  0  0
   76.6377   41.2148   40.0624 N   0  0  0  0  0  0  0  0  0  0  0  0
   77.1608   42.3333   39.4461 C   0  0  0  0  0  0  0  0  0  0  0  0
   76.9511   42.7522   38.3152 O   0  0  0  0  0  0  0  0  0  0  0  0
   78.0920   42.9294   40.4054 C   0  0  0  0  0  0  0  0  0  0  0  0
   78.9065   44.0363   40.2821 C   0  0  0  0  0  0  0  0  0  0  0  0
   79.7257   44.3351   41.3650 C   0  0  0  0  0  0  0  0  0  0  0  0
   79.7126   43.5535   42.5219 C   0  0  0  0  0  0  0  0  0  0  0  0
   75.6175   40.3777   39.4275 C   0  0  2  0  0  0  0  0  0  0  0  0
   74.2469   40.9585   39.7300 C   0  0  0  0  0  0  0  0  0  0  0  0
   74.0783   42.1376   39.9916 O   0  0  0  0  0  0  0  0  0  0  0  0
   73.1850   40.0962   39.6071 N   0  0  0  0  0  0  0  0  0  0  0  0
   73.2086   38.7593   39.2914 C   0  0  0  0  0  0  0  0  0  0  0  0
   72.1828   38.1103   39.1700 O   0  0  0  0  0  0  0  0  0  0  0  0
   74.5723   38.1552   39.0529 C   0  0  0  0  0  0  0  0  0  0  0  0
   75.6473   38.9046   39.8207 C   0  0  0  0  0  0  0  0  0  0  0  0
   79.5280   41.7828   44.5254 H   0  0  0  0  0  0  0  0  0  0  0  0
   78.2781   40.8092   43.7917 H   0  0  0  0  0  0  0  0  0  0  0  0
   78.9022   44.6419   39.3835 H   0  0  0  0  0  0  0  0  0  0  0  0
   80.3780   45.1999   41.3176 H   0  0  0  0  0  0  0  0  0  0  0  0
   80.3492   43.8324   43.3561 H   0  0  0  0  0  0  0  0  0  0  0  0
   75.7531   40.4746   38.3491 H   0  0  0  0  0  0  0  0  0  0  0  0
   72.2696   40.4999   39.7630 H   0  0  0  0  0  0  0  0  0  0  0  0
   74.5517   37.1087   39.3734 H   0  0  0  0  0  0  0  0  0  0  0  0
   74.7685   38.1759   37.9765 H   0  0  0  0  0  0  0  0  0  0  0  0
   75.4576   38.7803   40.8908 H   0  0  0  0  0  0  0  0  0  0  0  0
   76.6325   38.4721   39.6182 H   0  0  0  0  0  0  0  0  0  0  0  0
  1  2  1  0  0  0  0
  1 21  1  0  0  0  0
  1 22  1  0  0  0  0
  2  3  1  0  0  0  0
  2 12  2  0  0  0  0
  3  9  2  0  0  0  0
  3  4  1  0  0  0  0
  4  5  2  0  0  0  0
  4  6  1  0  0  0  0
  6  7  1  0  0  0  0
 13  6  1  0  0  0  0
  7  8  2  0  0  0  0
  7  9  1  0  0  0  0
  9 10  1  0  0  0  0
 10 23  1  0  0  0  0
 10 11  2  0  0  0  0
 11 12  1  0  0  0  0
 11 24  1  0  0  0  0
 12 25  1  0  0  0  0
 13 26  1  0  0  0  0
 13 14  1  0  0  0  0
 13 20  1  0  0  0  0
 14 15  2  0  0  0  0
 14 16  1  0  0  0  0
 16 27  1  0  0  0  0
 16 17  1  0  0  0  0
 17 18  2  0  0  0  0
 17 19  1  0  0  0  0
 19 28  1  0  0  0  0
 19 29  1  0  0  0  0
 19 20  1  0  0  0  0
 20 30  1  0  0  0  0
 20 31  1  0  0  0  0
M  ZZC   1 n1
M  ZZC   2 c1
M  ZZC   3 c2
M  ZZC   4 c3
M  ZZC   5 o1
M  ZZC   6 n2
M  ZZC   7 c4
M  ZZC   8 o2
M  ZZC   9 c5
M  ZZC  10 c6
M  ZZC  11 c7
M  ZZC  12 c8
M  ZZC  13 c9
M  ZZC  14 c10
M  ZZC  15 o3
M  ZZC  16 n3
M  ZZC  17 c11
M  ZZC  18 o4
M  ZZC  19 c12
M  ZZC  20 c13
M  ZZC  21 h11
M  ZZC  22 h12
M  ZZC  23 h61
M  ZZC  24 h71
M  ZZC  25 h81
M  ZZC  26 h91
M  ZZC  27 h31
M  ZZC  28 h121
M  ZZC  29 h122
M  ZZC  30 h131
M  ZZC  31 h132
M  ZZM   1 40
M  ZZI   1 224
M  ZZM   2 37
M  ZZI   2 124
M  ZZM   3 37
M  ZZI   3 124
M  ZZM   4 3
M  ZZI   4 121
M  ZZM   5 7
M  ZZI   5 81
M  ZZM   6 10
M  ZZI   6 192
M  ZZM   7 3
M  ZZI   7 121
M  ZZM   8 7
M  ZZI   8 81
M  ZZM   9 37
M  ZZI   9 124
M  ZZM  10 37
M  ZZI  10 125
M  ZZM  11 37
M  ZZI  11 125
M  ZZM  12 37
M  ZZI  12 125
M  ZZM  13 1
M  ZZI  13 113
M  ZZM  14 3
M  ZZI  14 121
M  ZZM  15 7
M  ZZI  15 81
M  ZZM  16 10
M  ZZI  16 191
M  ZZM  17 3
M  ZZI  17 121
M  ZZM  18 7
M  ZZI  18 81
M  ZZM  19 1
M  ZZI  19 112
M  ZZM  20 1
M  ZZI  20 112
M  ZZM  21 28
M  ZZI  21 11
M  ZZM  22 28
M  ZZI  22 11
M  ZZM  23 5
M  ZZI  23 1
M  ZZM  24 5
M  ZZI  24 1
M  ZZM  25 5
M  ZZI  25 1
M  ZZM  26 5
M  ZZI  26 1
M  ZZM  27 28
M  ZZI  27 11
M  ZZM  28 5
M  ZZI  28 1
M  ZZM  29 5
M  ZZI  29 1
M  ZZM  30 5
M  ZZI  30 1
M  ZZM  31 5
M  ZZI  31 1
M  END
> <IX>
1

> <NAME>
Cereblon_5J8O_13.pdb

> <Score>
-18.539538

> <Natom>
31

> <Nflex>
1

> <Hbond>
-3.687519

> <Hphob>
-3.591322

> <VwInt>
-24.265959

> <Dsolv>
15.140429

> <SolEl>
6.795483

> <Eintl>
1.702816

> <RecConf>
ND

> <projPath>
Cereblon_maps/

> <NAME_>
Cereblon_5J8O_13.pdb

$$$$
