Cereblon_6IQ5_2.pdb
  MOLSOFT 04032206283D

 29 31  0  0  1  0  0  0  0  0999 V2000
   79.0062   42.4905   42.6716 C   0  0  0  0  0  0  0  0  0  0  0  0
   78.1856   42.1966   41.5969 C   0  0  0  0  0  0  0  0  0  0  0  0
   77.2674   41.0788   41.4118 C   0  0  0  0  0  0  0  0  0  0  0  0
   77.0875   40.2184   42.2598 O   0  0  0  0  0  0  0  0  0  0  0  0
   76.7264   41.2211   40.1472 N   0  0  0  0  0  0  0  0  0  0  0  0
   77.2221   42.3484   39.5240 C   0  0  0  0  0  0  0  0  0  0  0  0
   76.9866   42.7660   38.3975 O   0  0  0  0  0  0  0  0  0  0  0  0
   78.1579   42.9595   40.4684 C   0  0  0  0  0  0  0  0  0  0  0  0
   78.9572   44.0751   40.3252 C   0  0  0  0  0  0  0  0  0  0  0  0
   79.8010   44.3841   41.3863 C   0  0  0  0  0  0  0  0  0  0  0  0
   79.8260   43.6054   42.5438 C   0  0  0  0  0  0  0  0  0  0  0  0
   75.7187   40.3657   39.5142 C   0  0  2  0  0  0  0  0  0  0  0  0
   74.3385   40.9338   39.8022 C   0  0  0  0  0  0  0  0  0  0  0  0
   74.1510   42.1201   40.0156 O   0  0  0  0  0  0  0  0  0  0  0  0
   73.2884   40.0516   39.7264 N   0  0  0  0  0  0  0  0  0  0  0  0
   73.3273   38.7055   39.4569 C   0  0  0  0  0  0  0  0  0  0  0  0
   72.3120   38.0309   39.4027 O   0  0  0  0  0  0  0  0  0  0  0  0
   74.6919   38.1247   39.1798 C   0  0  0  0  0  0  0  0  0  0  0  0
   75.7739   38.8951   39.9158 C   0  0  0  0  0  0  0  0  0  0  0  0
   79.0186   41.8750   43.5669 H   0  0  0  0  0  0  0  0  0  0  0  0
   78.9259   44.6761   39.4240 H   0  0  0  0  0  0  0  0  0  0  0  0
   80.4510   45.2485   41.3153 H   0  0  0  0  0  0  0  0  0  0  0  0
   80.4959   43.8726   43.3563 H   0  0  0  0  0  0  0  0  0  0  0  0
   75.8584   40.4534   38.4348 H   0  0  0  0  0  0  0  0  0  0  0  0
   72.3700   40.4451   39.8895 H   0  0  0  0  0  0  0  0  0  0  0  0
   74.6987   37.0789   39.5037 H   0  0  0  0  0  0  0  0  0  0  0  0
   74.8520   38.1469   38.0973 H   0  0  0  0  0  0  0  0  0  0  0  0
   76.7596   38.4745   39.6922 H   0  0  0  0  0  0  0  0  0  0  0  0
   75.6123   38.7756   40.9909 H   0  0  0  0  0  0  0  0  0  0  0  0
  1 20  1  0  0  0  0
  1  2  1  0  0  0  0
  1 11  2  0  0  0  0
  2  3  1  0  0  0  0
  2  8  2  0  0  0  0
  3  4  2  0  0  0  0
  3  5  1  0  0  0  0
  5  6  1  0  0  0  0
 12  5  1  0  0  0  0
  6  7  2  0  0  0  0
  6  8  1  0  0  0  0
  8  9  1  0  0  0  0
  9 21  1  0  0  0  0
  9 10  2  0  0  0  0
 10 22  1  0  0  0  0
 10 11  1  0  0  0  0
 11 23  1  0  0  0  0
 12 24  1  0  0  0  0
 12 13  1  0  0  0  0
 12 19  1  0  0  0  0
 13 14  2  0  0  0  0
 13 15  1  0  0  0  0
 15 25  1  0  0  0  0
 15 16  1  0  0  0  0
 16 17  2  0  0  0  0
 16 18  1  0  0  0  0
 18 26  1  0  0  0  0
 18 27  1  0  0  0  0
 18 19  1  0  0  0  0
 19 28  1  0  0  0  0
 19 29  1  0  0  0  0
M  ZZC   1 c1
M  ZZC   2 c2
M  ZZC   3 c3
M  ZZC   4 o1
M  ZZC   5 n1
M  ZZC   6 c4
M  ZZC   7 o2
M  ZZC   8 c5
M  ZZC   9 c6
M  ZZC  10 c7
M  ZZC  11 c8
M  ZZC  12 c9
M  ZZC  13 c10
M  ZZC  14 o3
M  ZZC  15 n2
M  ZZC  16 c11
M  ZZC  17 o4
M  ZZC  18 c12
M  ZZC  19 c13
M  ZZC  20 h11
M  ZZC  21 h61
M  ZZC  22 h71
M  ZZC  23 h81
M  ZZC  24 h91
M  ZZC  25 h21
M  ZZC  26 h121
M  ZZC  27 h122
M  ZZC  28 h131
M  ZZC  29 h132
M  ZZM   1 37
M  ZZI   1 125
M  ZZM   2 37
M  ZZI   2 124
M  ZZM   3 3
M  ZZI   3 121
M  ZZM   4 7
M  ZZI   4 81
M  ZZM   5 10
M  ZZI   5 192
M  ZZM   6 3
M  ZZI   6 121
M  ZZM   7 7
M  ZZI   7 81
M  ZZM   8 37
M  ZZI   8 124
M  ZZM   9 37
M  ZZI   9 125
M  ZZM  10 37
M  ZZI  10 125
M  ZZM  11 37
M  ZZI  11 125
M  ZZM  12 1
M  ZZI  12 113
M  ZZM  13 3
M  ZZI  13 121
M  ZZM  14 7
M  ZZI  14 81
M  ZZM  15 10
M  ZZI  15 191
M  ZZM  16 3
M  ZZI  16 121
M  ZZM  17 7
M  ZZI  17 81
M  ZZM  18 1
M  ZZI  18 112
M  ZZM  19 1
M  ZZI  19 112
M  ZZM  20 5
M  ZZI  20 1
M  ZZM  21 5
M  ZZI  21 1
M  ZZM  22 5
M  ZZI  22 1
M  ZZM  23 5
M  ZZI  23 1
M  ZZM  24 5
M  ZZI  24 1
M  ZZM  25 28
M  ZZI  25 11
M  ZZM  26 5
M  ZZI  26 1
M  ZZM  27 5
M  ZZI  27 1
M  ZZM  28 5
M  ZZI  28 1
M  ZZM  29 5
M  ZZI  29 1
M  END
> <IX>
1

> <NAME>
Cereblon_6IQ5_2.pdb

> <Score>
-19.394022

> <Natom>
29

> <Nflex>
1

> <Hbond>
-3.368949

> <Hphob>
-3.520486

> <VwInt>
-22.720086

> <Dsolv>
12.005147

> <SolEl>
5.613136

> <Eintl>
1.499501

> <RecConf>
ND

> <projPath>
Cereblon_maps/

> <NAME_>
Cereblon_6IQ5_2.pdb

$$$$
