Cereblon_1EJ1_13.pdb
  MOLSOFT 04032206183D

 30 32  0  0  1  0  0  0  0  0999 V2000
   72.9697   37.2818   34.1404 C   0  0  0  0  0  0  0  0  0  0  0  0
   72.6248   38.6000   34.3848 C   0  0  0  0  0  0  0  0  0  0  0  0
   72.5900   39.5005   33.3569 C   0  0  0  0  0  0  0  0  0  0  0  0
   72.1455   40.7907   33.8902 C   0  0  0  0  0  0  0  0  0  0  0  0
   71.9614   41.7908   33.2108 O   0  0  0  0  0  0  0  0  0  0  0  0
   71.9887   40.6222   35.2541 N   0  0  0  0  0  0  0  0  0  0  0  0
   71.5752   41.6957   36.1721 C   0  0  1  0  0  0  0  0  0  0  0  0
   71.2419   41.1976   37.5808 C   0  0  0  0  0  0  0  0  0  0  0  0
   70.1882   40.6280   37.8302 O   0  0  0  0  0  0  0  0  0  0  0  0
   72.2230   41.3436   38.5392 N   0  0  0  0  0  0  0  0  0  0  0  0
   73.4461   41.9640   38.4178 C   0  0  0  0  0  0  0  0  0  0  0  0
   74.1619   42.1871   39.3825 O   0  0  0  0  0  0  0  0  0  0  0  0
   73.8354   42.3641   37.0181 C   0  0  0  0  0  0  0  0  0  0  0  0
   72.6086   42.8166   36.2500 C   0  0  0  0  0  0  0  0  0  0  0  0
   72.2492   39.2523   35.6655 C   0  0  0  0  0  0  0  0  0  0  0  0
   72.9322   39.1744   32.0576 C   0  0  0  0  0  0  0  0  0  0  0  0
   73.2818   37.8569   31.8049 C   0  0  0  0  0  0  0  0  0  0  0  0
   73.2832   36.9210   32.8355 C   0  0  0  0  0  0  0  0  0  0  0  0
   72.9842   36.5456   34.9381 H   0  0  0  0  0  0  0  0  0  0  0  0
   70.6610   42.1303   35.7510 H   0  0  0  0  0  0  0  0  0  0  0  0
   71.9762   41.0383   39.4714 H   0  0  0  0  0  0  0  0  0  0  0  0
   74.5616   43.1803   37.0784 H   0  0  0  0  0  0  0  0  0  0  0  0
   74.3272   41.5199   36.5293 H   0  0  0  0  0  0  0  0  0  0  0  0
   72.1669   43.6845   36.7531 H   0  0  0  0  0  0  0  0  0  0  0  0
   72.9028   43.1520   35.2530 H   0  0  0  0  0  0  0  0  0  0  0  0
   71.3377   38.8105   36.0827 H   0  0  0  0  0  0  0  0  0  0  0  0
   73.0752   39.2312   36.3846 H   0  0  0  0  0  0  0  0  0  0  0  0
   72.9215   39.9162   31.2676 H   0  0  0  0  0  0  0  0  0  0  0  0
   73.5473   37.5536   30.7967 H   0  0  0  0  0  0  0  0  0  0  0  0
   73.5277   35.8888   32.6143 H   0  0  0  0  0  0  0  0  0  0  0  0
  1 19  1  0  0  0  0
  1 18  2  0  0  0  0
  1  2  1  0  0  0  0
  2  3  2  0  0  0  0
  2 15  1  0  0  0  0
  3 16  1  0  0  0  0
  3  4  1  0  0  0  0
  4  6  1  0  0  0  0
  4  5  2  0  0  0  0
  6 15  1  0  0  0  0
  7  6  1  0  0  0  0
  7 20  1  0  0  0  0
  7  8  1  0  0  0  0
  7 14  1  0  0  0  0
  8  9  2  0  0  0  0
  8 10  1  0  0  0  0
 10 21  1  0  0  0  0
 10 11  1  0  0  0  0
 11 12  2  0  0  0  0
 11 13  1  0  0  0  0
 13 22  1  0  0  0  0
 13 23  1  0  0  0  0
 13 14  1  0  0  0  0
 14 24  1  0  0  0  0
 14 25  1  0  0  0  0
 15 26  1  0  0  0  0
 15 27  1  0  0  0  0
 16 17  2  0  0  0  0
 16 28  1  0  0  0  0
 17 18  1  0  0  0  0
 17 29  1  0  0  0  0
 18 30  1  0  0  0  0
M  ZZC   1 c1
M  ZZC   2 c2
M  ZZC   3 c3
M  ZZC   4 c4
M  ZZC   5 o1
M  ZZC   6 n1
M  ZZC   7 c5
M  ZZC   8 c6
M  ZZC   9 o2
M  ZZC  10 n2
M  ZZC  11 c7
M  ZZC  12 o3
M  ZZC  13 c8
M  ZZC  14 c9
M  ZZC  15 c10
M  ZZC  16 c11
M  ZZC  17 c12
M  ZZC  18 c13
M  ZZC  19 h11
M  ZZC  20 h51
M  ZZC  21 h21
M  ZZC  22 h81
M  ZZC  23 h82
M  ZZC  24 h91
M  ZZC  25 h92
M  ZZC  26 h101
M  ZZC  27 h102
M  ZZC  28 h111
M  ZZC  29 h121
M  ZZC  30 h131
M  ZZM   1 37
M  ZZI   1 125
M  ZZM   2 37
M  ZZI   2 124
M  ZZM   3 37
M  ZZI   3 124
M  ZZM   4 3
M  ZZI   4 121
M  ZZM   5 7
M  ZZI   5 81
M  ZZM   6 10
M  ZZI   6 192
M  ZZM   7 1
M  ZZI   7 113
M  ZZM   8 3
M  ZZI   8 121
M  ZZM   9 7
M  ZZI   9 81
M  ZZM  10 10
M  ZZI  10 191
M  ZZM  11 3
M  ZZI  11 121
M  ZZM  12 7
M  ZZI  12 81
M  ZZM  13 1
M  ZZI  13 112
M  ZZM  14 1
M  ZZI  14 112
M  ZZM  15 1
M  ZZI  15 112
M  ZZM  16 37
M  ZZI  16 125
M  ZZM  17 37
M  ZZI  17 125
M  ZZM  18 37
M  ZZI  18 125
M  ZZM  19 5
M  ZZI  19 1
M  ZZM  20 5
M  ZZI  20 1
M  ZZM  21 28
M  ZZI  21 11
M  ZZM  22 5
M  ZZI  22 1
M  ZZM  23 5
M  ZZI  23 1
M  ZZM  24 5
M  ZZI  24 1
M  ZZM  25 5
M  ZZI  25 1
M  ZZM  26 5
M  ZZI  26 1
M  ZZM  27 5
M  ZZI  27 1
M  ZZM  28 5
M  ZZI  28 1
M  ZZM  29 5
M  ZZI  29 1
M  ZZM  30 5
M  ZZI  30 1
M  END
> <IX>
1

> <NAME>
Cereblon_1EJ1_13.pdb

> <Score>
-9.298879

> <Natom>
30

> <Nflex>
1

> <Hbond>
-2.281314

> <Hphob>
-3.634432

> <VwInt>
-18.314614

> <Dsolv>
13.809879

> <SolEl>
6.836426

> <Eintl>
2.921797

> <RecConf>
ND

> <projPath>
Cereblon_maps/

> <NAME_>
Cereblon_1EJ1_13.pdb

$$$$
