Cereblon_5TRF_12.pdb
  MOLSOFT 04032206273D

 30 32  0  0  1  0  0  0  0  0999 V2000
   76.0550   42.8364   38.6262 C   0  0  0  0  0  0  0  0  0  0  0  0
   74.9773   42.0560   38.2418 C   0  0  0  0  0  0  0  0  0  0  0  0
   74.7310   40.8693   38.8715 C   0  0  0  0  0  0  0  0  0  0  0  0
   73.5597   40.2503   38.2462 C   0  0  0  0  0  0  0  0  0  0  0  0
   73.1169   39.1574   38.5676 O   0  0  0  0  0  0  0  0  0  0  0  0
   73.1155   41.1262   37.2714 N   0  0  0  0  0  0  0  0  0  0  0  0
   71.9694   40.8426   36.3877 C   0  0  1  0  0  0  0  0  0  0  0  0
   70.6423   41.0168   37.1243 C   0  0  0  0  0  0  0  0  0  0  0  0
   70.2025   40.2171   37.9362 O   0  0  0  0  0  0  0  0  0  0  0  0
   69.9353   42.1600   36.8671 N   0  0  0  0  0  0  0  0  0  0  0  0
   70.2232   43.1827   36.0154 C   0  0  0  0  0  0  0  0  0  0  0  0
   69.5027   44.1639   35.9756 O   0  0  0  0  0  0  0  0  0  0  0  0
   71.4786   43.0510   35.1974 C   0  0  0  0  0  0  0  0  0  0  0  0
   71.9283   41.6020   35.0587 C   0  0  0  0  0  0  0  0  0  0  0  0
   73.9705   42.2984   37.1771 C   0  0  0  0  0  0  0  0  0  0  0  0
   75.5086   40.3882   39.9081 C   0  0  0  0  0  0  0  0  0  0  0  0
   76.5726   41.1787   40.3155 C   0  0  0  0  0  0  0  0  0  0  0  0
   76.8407   42.3879   39.6793 C   0  0  0  0  0  0  0  0  0  0  0  0
   76.2892   43.7706   38.1255 H   0  0  0  0  0  0  0  0  0  0  0  0
   72.0335   39.7742   36.1523 H   0  0  0  0  0  0  0  0  0  0  0  0
   69.0652   42.2599   37.3733 H   0  0  0  0  0  0  0  0  0  0  0  0
   71.2710   43.4559   34.2041 H   0  0  0  0  0  0  0  0  0  0  0  0
   72.2462   43.6827   35.6482 H   0  0  0  0  0  0  0  0  0  0  0  0
   71.2162   41.0953   34.3968 H   0  0  0  0  0  0  0  0  0  0  0  0
   72.8966   41.5569   34.5520 H   0  0  0  0  0  0  0  0  0  0  0  0
   73.3906   43.2003   37.3801 H   0  0  0  0  0  0  0  0  0  0  0  0
   74.4437   42.3372   36.1910 H   0  0  0  0  0  0  0  0  0  0  0  0
   75.2976   39.4349   40.3819 H   0  0  0  0  0  0  0  0  0  0  0  0
   77.2106   40.8473   41.1292 H   0  0  0  0  0  0  0  0  0  0  0  0
   77.6861   42.9855   40.0070 H   0  0  0  0  0  0  0  0  0  0  0  0
  1 19  1  0  0  0  0
  1 18  2  0  0  0  0
  1  2  1  0  0  0  0
  2  3  2  0  0  0  0
  2 15  1  0  0  0  0
  3 16  1  0  0  0  0
  3  4  1  0  0  0  0
  4  6  1  0  0  0  0
  4  5  2  0  0  0  0
  6 15  1  0  0  0  0
  7  6  1  0  0  0  0
  7 20  1  0  0  0  0
  7  8  1  0  0  0  0
  7 14  1  0  0  0  0
  8  9  2  0  0  0  0
  8 10  1  0  0  0  0
 10 21  1  0  0  0  0
 10 11  1  0  0  0  0
 11 12  2  0  0  0  0
 11 13  1  0  0  0  0
 13 22  1  0  0  0  0
 13 23  1  0  0  0  0
 13 14  1  0  0  0  0
 14 24  1  0  0  0  0
 14 25  1  0  0  0  0
 15 26  1  0  0  0  0
 15 27  1  0  0  0  0
 16 17  2  0  0  0  0
 16 28  1  0  0  0  0
 17 18  1  0  0  0  0
 17 29  1  0  0  0  0
 18 30  1  0  0  0  0
M  ZZC   1 c1
M  ZZC   2 c2
M  ZZC   3 c3
M  ZZC   4 c4
M  ZZC   5 o1
M  ZZC   6 n1
M  ZZC   7 c5
M  ZZC   8 c6
M  ZZC   9 o2
M  ZZC  10 n2
M  ZZC  11 c7
M  ZZC  12 o3
M  ZZC  13 c8
M  ZZC  14 c9
M  ZZC  15 c10
M  ZZC  16 c11
M  ZZC  17 c12
M  ZZC  18 c13
M  ZZC  19 h11
M  ZZC  20 h51
M  ZZC  21 h21
M  ZZC  22 h81
M  ZZC  23 h82
M  ZZC  24 h91
M  ZZC  25 h92
M  ZZC  26 h101
M  ZZC  27 h102
M  ZZC  28 h111
M  ZZC  29 h121
M  ZZC  30 h131
M  ZZM   1 37
M  ZZI   1 125
M  ZZM   2 37
M  ZZI   2 124
M  ZZM   3 37
M  ZZI   3 124
M  ZZM   4 3
M  ZZI   4 121
M  ZZM   5 7
M  ZZI   5 81
M  ZZM   6 10
M  ZZI   6 192
M  ZZM   7 1
M  ZZI   7 113
M  ZZM   8 3
M  ZZI   8 121
M  ZZM   9 7
M  ZZI   9 81
M  ZZM  10 10
M  ZZI  10 191
M  ZZM  11 3
M  ZZI  11 121
M  ZZM  12 7
M  ZZI  12 81
M  ZZM  13 1
M  ZZI  13 112
M  ZZM  14 1
M  ZZI  14 112
M  ZZM  15 1
M  ZZI  15 112
M  ZZM  16 37
M  ZZI  16 125
M  ZZM  17 37
M  ZZI  17 125
M  ZZM  18 37
M  ZZI  18 125
M  ZZM  19 5
M  ZZI  19 1
M  ZZM  20 5
M  ZZI  20 1
M  ZZM  21 28
M  ZZI  21 11
M  ZZM  22 5
M  ZZI  22 1
M  ZZM  23 5
M  ZZI  23 1
M  ZZM  24 5
M  ZZI  24 1
M  ZZM  25 5
M  ZZI  25 1
M  ZZM  26 5
M  ZZI  26 1
M  ZZM  27 5
M  ZZI  27 1
M  ZZM  28 5
M  ZZI  28 1
M  ZZM  29 5
M  ZZI  29 1
M  ZZM  30 5
M  ZZI  30 1
M  END
> <IX>
1

> <NAME>
Cereblon_5TRF_12.pdb

> <Score>
-14.290064

> <Natom>
30

> <Nflex>
1

> <Hbond>
-4.295291

> <Hphob>
-3.905276

> <VwInt>
-21.821842

> <Dsolv>
12.573708

> <SolEl>
11.69371

> <Eintl>
5.44545

> <RecConf>
ND

> <projPath>
Cereblon_maps/

> <NAME_>
Cereblon_5TRF_12.pdb

$$$$
