Cereblon_5TOB_12.pdb
  MOLSOFT 04032206263D

 31 33  0  0  1  0  0  0  0  0999 V2000
   78.8172   41.6822   43.8147 N   0  0  0  0  0  0  0  0  0  0  0  0
   78.9057   42.4291   42.6297 C   0  0  0  0  0  0  0  0  0  0  0  0
   78.1005   42.1613   41.5356 C   0  0  0  0  0  0  0  0  0  0  0  0
   77.1788   41.0510   41.3307 C   0  0  0  0  0  0  0  0  0  0  0  0
   76.9957   40.1711   42.1589 O   0  0  0  0  0  0  0  0  0  0  0  0
   76.6454   41.2127   40.0674 N   0  0  0  0  0  0  0  0  0  0  0  0
   77.1660   42.3327   39.4520 C   0  0  0  0  0  0  0  0  0  0  0  0
   76.9517   42.7546   38.3230 O   0  0  0  0  0  0  0  0  0  0  0  0
   78.0977   42.9293   40.4107 C   0  0  0  0  0  0  0  0  0  0  0  0
   78.9090   44.0386   40.2885 C   0  0  0  0  0  0  0  0  0  0  0  0
   79.7263   44.3391   41.3720 C   0  0  0  0  0  0  0  0  0  0  0  0
   79.7135   43.5579   42.5292 C   0  0  0  0  0  0  0  0  0  0  0  0
   75.6260   40.3751   39.4316 C   0  0  2  0  0  0  0  0  0  0  0  0
   74.2544   40.9528   39.7367 C   0  0  0  0  0  0  0  0  0  0  0  0
   74.0833   42.1331   39.9930 O   0  0  0  0  0  0  0  0  0  0  0  0
   73.1942   40.0867   39.6243 N   0  0  0  0  0  0  0  0  0  0  0  0
   73.2196   38.7486   39.3136 C   0  0  0  0  0  0  0  0  0  0  0  0
   72.1951   38.0947   39.2071 O   0  0  0  0  0  0  0  0  0  0  0  0
   74.5829   38.1505   39.0600 C   0  0  0  0  0  0  0  0  0  0  0  0
   75.6607   38.9009   39.8223 C   0  0  0  0  0  0  0  0  0  0  0  0
   79.5488   41.7731   44.5163 H   0  0  0  0  0  0  0  0  0  0  0  0
   78.3102   40.7962   43.7830 H   0  0  0  0  0  0  0  0  0  0  0  0
   78.9005   44.6457   39.3910 H   0  0  0  0  0  0  0  0  0  0  0  0
   80.3760   45.2060   41.3256 H   0  0  0  0  0  0  0  0  0  0  0  0
   80.3480   43.8388   43.3643 H   0  0  0  0  0  0  0  0  0  0  0  0
   75.7600   40.4743   38.3531 H   0  0  0  0  0  0  0  0  0  0  0  0
   72.2787   40.4880   39.7856 H   0  0  0  0  0  0  0  0  0  0  0  0
   74.5688   37.1031   39.3777 H   0  0  0  0  0  0  0  0  0  0  0  0
   74.7697   38.1751   37.9819 H   0  0  0  0  0  0  0  0  0  0  0  0
   75.4769   38.7747   40.8932 H   0  0  0  0  0  0  0  0  0  0  0  0
   76.6455   38.4705   39.6142 H   0  0  0  0  0  0  0  0  0  0  0  0
  1  2  1  0  0  0  0
  1 21  1  0  0  0  0
  1 22  1  0  0  0  0
  2  3  1  0  0  0  0
  2 12  2  0  0  0  0
  3  9  2  0  0  0  0
  3  4  1  0  0  0  0
  4  5  2  0  0  0  0
  4  6  1  0  0  0  0
  6  7  1  0  0  0  0
 13  6  1  0  0  0  0
  7  8  2  0  0  0  0
  7  9  1  0  0  0  0
  9 10  1  0  0  0  0
 10 23  1  0  0  0  0
 10 11  2  0  0  0  0
 11 12  1  0  0  0  0
 11 24  1  0  0  0  0
 12 25  1  0  0  0  0
 13 26  1  0  0  0  0
 13 14  1  0  0  0  0
 13 20  1  0  0  0  0
 14 15  2  0  0  0  0
 14 16  1  0  0  0  0
 16 27  1  0  0  0  0
 16 17  1  0  0  0  0
 17 18  2  0  0  0  0
 17 19  1  0  0  0  0
 19 28  1  0  0  0  0
 19 29  1  0  0  0  0
 19 20  1  0  0  0  0
 20 30  1  0  0  0  0
 20 31  1  0  0  0  0
M  ZZC   1 n1
M  ZZC   2 c1
M  ZZC   3 c2
M  ZZC   4 c3
M  ZZC   5 o1
M  ZZC   6 n2
M  ZZC   7 c4
M  ZZC   8 o2
M  ZZC   9 c5
M  ZZC  10 c6
M  ZZC  11 c7
M  ZZC  12 c8
M  ZZC  13 c9
M  ZZC  14 c10
M  ZZC  15 o3
M  ZZC  16 n3
M  ZZC  17 c11
M  ZZC  18 o4
M  ZZC  19 c12
M  ZZC  20 c13
M  ZZC  21 h11
M  ZZC  22 h12
M  ZZC  23 h61
M  ZZC  24 h71
M  ZZC  25 h81
M  ZZC  26 h91
M  ZZC  27 h31
M  ZZC  28 h121
M  ZZC  29 h122
M  ZZC  30 h131
M  ZZC  31 h132
M  ZZM   1 40
M  ZZI   1 224
M  ZZM   2 37
M  ZZI   2 124
M  ZZM   3 37
M  ZZI   3 124
M  ZZM   4 3
M  ZZI   4 121
M  ZZM   5 7
M  ZZI   5 81
M  ZZM   6 10
M  ZZI   6 192
M  ZZM   7 3
M  ZZI   7 121
M  ZZM   8 7
M  ZZI   8 81
M  ZZM   9 37
M  ZZI   9 124
M  ZZM  10 37
M  ZZI  10 125
M  ZZM  11 37
M  ZZI  11 125
M  ZZM  12 37
M  ZZI  12 125
M  ZZM  13 1
M  ZZI  13 113
M  ZZM  14 3
M  ZZI  14 121
M  ZZM  15 7
M  ZZI  15 81
M  ZZM  16 10
M  ZZI  16 191
M  ZZM  17 3
M  ZZI  17 121
M  ZZM  18 7
M  ZZI  18 81
M  ZZM  19 1
M  ZZI  19 112
M  ZZM  20 1
M  ZZI  20 112
M  ZZM  21 28
M  ZZI  21 11
M  ZZM  22 28
M  ZZI  22 11
M  ZZM  23 5
M  ZZI  23 1
M  ZZM  24 5
M  ZZI  24 1
M  ZZM  25 5
M  ZZI  25 1
M  ZZM  26 5
M  ZZI  26 1
M  ZZM  27 28
M  ZZI  27 11
M  ZZM  28 5
M  ZZI  28 1
M  ZZM  29 5
M  ZZI  29 1
M  ZZM  30 5
M  ZZI  30 1
M  ZZM  31 5
M  ZZI  31 1
M  END
> <IX>
1

> <NAME>
Cereblon_5TOB_12.pdb

> <Score>
-18.55159

> <Natom>
31

> <Nflex>
1

> <Hbond>
-3.628239

> <Hphob>
-3.622713

> <VwInt>
-24.353017

> <Dsolv>
15.10529

> <SolEl>
6.789824

> <Eintl>
1.663063

> <RecConf>
ND

> <projPath>
Cereblon_maps/

> <NAME_>
Cereblon_5TOB_12.pdb

$$$$
