Cereblon_4QNQ_27.pdb
  MOLSOFT 04032206233D

 31 33  0  0  1  0  0  0  0  0999 V2000
   81.5305   52.9531   19.9507 N   0  0  0  0  0  0  0  0  0  0  0  0
   81.7251   54.3333   19.7998 C   0  0  0  0  0  0  0  0  0  0  0  0
   80.9536   55.2635   20.4800 C   0  0  0  0  0  0  0  0  0  0  0  0
   79.8251   55.0571   21.3868 C   0  0  0  0  0  0  0  0  0  0  0  0
   79.3370   53.9673   21.6533 O   0  0  0  0  0  0  0  0  0  0  0  0
   79.4595   56.3083   21.8383 N   0  0  0  0  0  0  0  0  0  0  0  0
   80.2100   57.2940   21.2347 C   0  0  0  0  0  0  0  0  0  0  0  0
   80.1375   58.5091   21.3471 O   0  0  0  0  0  0  0  0  0  0  0  0
   81.1886   56.6030   20.3979 C   0  0  0  0  0  0  0  0  0  0  0  0
   82.2328   57.1225   19.6565 C   0  0  0  0  0  0  0  0  0  0  0  0
   83.0493   56.2092   19.0027 C   0  0  0  0  0  0  0  0  0  0  0  0
   82.8075   54.8376   19.0870 C   0  0  0  0  0  0  0  0  0  0  0  0
   78.4221   56.5292   22.8470 C   0  0  1  0  0  0  0  0  0  0  0  0
   79.0059   57.1521   24.1116 C   0  0  0  0  0  0  0  0  0  0  0  0
   80.1978   57.1689   24.3798 O   0  0  0  0  0  0  0  0  0  0  0  0
   78.0810   57.6826   24.9798 N   0  0  0  0  0  0  0  0  0  0  0  0
   76.7373   57.8805   24.7695 C   0  0  0  0  0  0  0  0  0  0  0  0
   76.0240   58.4090   25.6067 O   0  0  0  0  0  0  0  0  0  0  0  0
   76.1851   57.3659   23.4634 C   0  0  0  0  0  0  0  0  0  0  0  0
   77.2482   57.3699   22.3731 C   0  0  0  0  0  0  0  0  0  0  0  0
   82.0229   52.3445   19.3022 H   0  0  0  0  0  0  0  0  0  0  0  0
   80.5689   52.6825   20.1502 H   0  0  0  0  0  0  0  0  0  0  0  0
   82.4204   58.1911   19.6079 H   0  0  0  0  0  0  0  0  0  0  0  0
   83.8964   56.5665   18.4243 H   0  0  0  0  0  0  0  0  0  0  0  0
   83.4744   54.1511   18.5744 H   0  0  0  0  0  0  0  0  0  0  0  0
   78.0455   55.5435   23.1315 H   0  0  0  0  0  0  0  0  0  0  0  0
   78.4499   58.0447   25.8496 H   0  0  0  0  0  0  0  0  0  0  0  0
   75.7985   56.3573   23.6403 H   0  0  0  0  0  0  0  0  0  0  0  0
   75.3427   57.9987   23.1724 H   0  0  0  0  0  0  0  0  0  0  0  0
   76.8377   56.9707   21.4402 H   0  0  0  0  0  0  0  0  0  0  0  0
   77.5663   58.3978   22.1674 H   0  0  0  0  0  0  0  0  0  0  0  0
  1  2  1  0  0  0  0
  1 21  1  0  0  0  0
  1 22  1  0  0  0  0
  2  3  1  0  0  0  0
  2 12  2  0  0  0  0
  3  9  2  0  0  0  0
  3  4  1  0  0  0  0
  4  5  2  0  0  0  0
  4  6  1  0  0  0  0
  6  7  1  0  0  0  0
 13  6  1  0  0  0  0
  7  8  2  0  0  0  0
  7  9  1  0  0  0  0
  9 10  1  0  0  0  0
 10 23  1  0  0  0  0
 10 11  2  0  0  0  0
 11 12  1  0  0  0  0
 11 24  1  0  0  0  0
 12 25  1  0  0  0  0
 13 26  1  0  0  0  0
 13 14  1  0  0  0  0
 13 20  1  0  0  0  0
 14 15  2  0  0  0  0
 14 16  1  0  0  0  0
 16 27  1  0  0  0  0
 16 17  1  0  0  0  0
 17 18  2  0  0  0  0
 17 19  1  0  0  0  0
 19 28  1  0  0  0  0
 19 29  1  0  0  0  0
 19 20  1  0  0  0  0
 20 30  1  0  0  0  0
 20 31  1  0  0  0  0
M  ZZC   1 n1
M  ZZC   2 c1
M  ZZC   3 c2
M  ZZC   4 c3
M  ZZC   5 o1
M  ZZC   6 n2
M  ZZC   7 c4
M  ZZC   8 o2
M  ZZC   9 c5
M  ZZC  10 c6
M  ZZC  11 c7
M  ZZC  12 c8
M  ZZC  13 c9
M  ZZC  14 c10
M  ZZC  15 o3
M  ZZC  16 n3
M  ZZC  17 c11
M  ZZC  18 o4
M  ZZC  19 c12
M  ZZC  20 c13
M  ZZC  21 h11
M  ZZC  22 h12
M  ZZC  23 h61
M  ZZC  24 h71
M  ZZC  25 h81
M  ZZC  26 h91
M  ZZC  27 h31
M  ZZC  28 h121
M  ZZC  29 h122
M  ZZC  30 h131
M  ZZC  31 h132
M  ZZM   1 40
M  ZZI   1 224
M  ZZM   2 37
M  ZZI   2 124
M  ZZM   3 37
M  ZZI   3 124
M  ZZM   4 3
M  ZZI   4 121
M  ZZM   5 7
M  ZZI   5 81
M  ZZM   6 10
M  ZZI   6 192
M  ZZM   7 3
M  ZZI   7 121
M  ZZM   8 7
M  ZZI   8 81
M  ZZM   9 37
M  ZZI   9 124
M  ZZM  10 37
M  ZZI  10 125
M  ZZM  11 37
M  ZZI  11 125
M  ZZM  12 37
M  ZZI  12 125
M  ZZM  13 1
M  ZZI  13 113
M  ZZM  14 3
M  ZZI  14 121
M  ZZM  15 7
M  ZZI  15 81
M  ZZM  16 10
M  ZZI  16 191
M  ZZM  17 3
M  ZZI  17 121
M  ZZM  18 7
M  ZZI  18 81
M  ZZM  19 1
M  ZZI  19 112
M  ZZM  20 1
M  ZZI  20 112
M  ZZM  21 28
M  ZZI  21 11
M  ZZM  22 28
M  ZZI  22 11
M  ZZM  23 5
M  ZZI  23 1
M  ZZM  24 5
M  ZZI  24 1
M  ZZM  25 5
M  ZZI  25 1
M  ZZM  26 5
M  ZZI  26 1
M  ZZM  27 28
M  ZZI  27 11
M  ZZM  28 5
M  ZZI  28 1
M  ZZM  29 5
M  ZZI  29 1
M  ZZM  30 5
M  ZZI  30 1
M  ZZM  31 5
M  ZZI  31 1
M  END
> <IX>
1

> <NAME>
Cereblon_4QNQ_27.pdb

> <Score>
-20.581861

> <Natom>
31

> <Nflex>
1

> <Hbond>
-3.759126

> <Hphob>
-3.466586

> <VwInt>
-24.160754

> <Dsolv>
13.323603

> <SolEl>
5.093619

> <Eintl>
2.429337

> <RecConf>
ND

> <projPath>
Cereblon_maps/

> <NAME_>
Cereblon_4QNQ_27.pdb

$$$$
