Cereblon_6VS3_3.pdb
  MOLSOFT 04032206293D

 30 32  0  0  1  0  0  0  0  0999 V2000
   78.9636   42.3528   42.8098 C   0  0  0  0  0  0  0  0  0  0  0  0
   78.1568   42.0587   41.7227 C   0  0  0  0  0  0  0  0  0  0  0  0
   78.1639   42.8643   40.6147 C   0  0  0  0  0  0  0  0  0  0  0  0
   77.2339   42.3031   39.6271 C   0  0  0  0  0  0  0  0  0  0  0  0
   77.0153   42.7693   38.5163 O   0  0  0  0  0  0  0  0  0  0  0  0
   76.7093   41.1586   40.1958 N   0  0  0  0  0  0  0  0  0  0  0  0
   75.6955   40.3309   39.5372 C   0  0  2  0  0  0  0  0  0  0  0  0
   74.3122   40.9154   39.7957 C   0  0  0  0  0  0  0  0  0  0  0  0
   74.1245   42.1034   40.0013 O   0  0  0  0  0  0  0  0  0  0  0  0
   73.2569   40.0405   39.7108 N   0  0  0  0  0  0  0  0  0  0  0  0
   73.2883   38.6909   39.4613 C   0  0  0  0  0  0  0  0  0  0  0  0
   72.2686   38.0234   39.4047 O   0  0  0  0  0  0  0  0  0  0  0  0
   74.6513   38.0952   39.2100 C   0  0  0  0  0  0  0  0  0  0  0  0
   75.7340   38.8634   39.9470 C   0  0  0  0  0  0  0  0  0  0  0  0
   77.2324   40.9135   41.5301 C   0  0  0  0  0  0  0  0  0  0  0  0
   78.9685   43.9817   40.5064 C   0  0  0  0  0  0  0  0  0  0  0  0
   79.7903   44.2733   41.5863 C   0  0  0  0  0  0  0  0  0  0  0  0
   79.7870   43.4690   42.7239 C   0  0  0  0  0  0  0  0  0  0  0  0
   78.9639   41.7277   43.6981 H   0  0  0  0  0  0  0  0  0  0  0  0
   75.8602   40.4205   38.4612 H   0  0  0  0  0  0  0  0  0  0  0  0
   72.3397   40.4443   39.8546 H   0  0  0  0  0  0  0  0  0  0  0  0
   74.6454   37.0537   39.5468 H   0  0  0  0  0  0  0  0  0  0  0  0
   74.8274   38.1016   38.1297 H   0  0  0  0  0  0  0  0  0  0  0  0
   75.5785   38.7592   41.0256 H   0  0  0  0  0  0  0  0  0  0  0  0
   76.7156   38.4318   39.7254 H   0  0  0  0  0  0  0  0  0  0  0  0
   77.7745   39.9619   41.5435 H   0  0  0  0  0  0  0  0  0  0  0  0
   76.4230   40.9145   42.2631 H   0  0  0  0  0  0  0  0  0  0  0  0
   78.9561   44.6002   39.6164 H   0  0  0  0  0  0  0  0  0  0  0  0
   80.4373   45.1422   41.5470 H   0  0  0  0  0  0  0  0  0  0  0  0
   80.4372   43.7180   43.5574 H   0  0  0  0  0  0  0  0  0  0  0  0
  1 19  1  0  0  0  0
  1 18  2  0  0  0  0
  1  2  1  0  0  0  0
  2  3  2  0  0  0  0
  2 15  1  0  0  0  0
  3 16  1  0  0  0  0
  3  4  1  0  0  0  0
  4  6  1  0  0  0  0
  4  5  2  0  0  0  0
  6 15  1  0  0  0  0
  7  6  1  0  0  0  0
  7 20  1  0  0  0  0
  7  8  1  0  0  0  0
  7 14  1  0  0  0  0
  8  9  2  0  0  0  0
  8 10  1  0  0  0  0
 10 21  1  0  0  0  0
 10 11  1  0  0  0  0
 11 12  2  0  0  0  0
 11 13  1  0  0  0  0
 13 22  1  0  0  0  0
 13 23  1  0  0  0  0
 13 14  1  0  0  0  0
 14 24  1  0  0  0  0
 14 25  1  0  0  0  0
 15 26  1  0  0  0  0
 15 27  1  0  0  0  0
 16 17  2  0  0  0  0
 16 28  1  0  0  0  0
 17 18  1  0  0  0  0
 17 29  1  0  0  0  0
 18 30  1  0  0  0  0
M  ZZC   1 c1
M  ZZC   2 c2
M  ZZC   3 c3
M  ZZC   4 c4
M  ZZC   5 o1
M  ZZC   6 n1
M  ZZC   7 c5
M  ZZC   8 c6
M  ZZC   9 o2
M  ZZC  10 n2
M  ZZC  11 c7
M  ZZC  12 o3
M  ZZC  13 c8
M  ZZC  14 c9
M  ZZC  15 c10
M  ZZC  16 c11
M  ZZC  17 c12
M  ZZC  18 c13
M  ZZC  19 h11
M  ZZC  20 h51
M  ZZC  21 h21
M  ZZC  22 h81
M  ZZC  23 h82
M  ZZC  24 h91
M  ZZC  25 h92
M  ZZC  26 h101
M  ZZC  27 h102
M  ZZC  28 h111
M  ZZC  29 h121
M  ZZC  30 h131
M  ZZM   1 37
M  ZZI   1 125
M  ZZM   2 37
M  ZZI   2 124
M  ZZM   3 37
M  ZZI   3 124
M  ZZM   4 3
M  ZZI   4 121
M  ZZM   5 7
M  ZZI   5 81
M  ZZM   6 10
M  ZZI   6 192
M  ZZM   7 1
M  ZZI   7 113
M  ZZM   8 3
M  ZZI   8 121
M  ZZM   9 7
M  ZZI   9 81
M  ZZM  10 10
M  ZZI  10 191
M  ZZM  11 3
M  ZZI  11 121
M  ZZM  12 7
M  ZZI  12 81
M  ZZM  13 1
M  ZZI  13 112
M  ZZM  14 1
M  ZZI  14 112
M  ZZM  15 1
M  ZZI  15 112
M  ZZM  16 37
M  ZZI  16 125
M  ZZM  17 37
M  ZZI  17 125
M  ZZM  18 37
M  ZZI  18 125
M  ZZM  19 5
M  ZZI  19 1
M  ZZM  20 5
M  ZZI  20 1
M  ZZM  21 28
M  ZZI  21 11
M  ZZM  22 5
M  ZZI  22 1
M  ZZM  23 5
M  ZZI  23 1
M  ZZM  24 5
M  ZZI  24 1
M  ZZM  25 5
M  ZZI  25 1
M  ZZM  26 5
M  ZZI  26 1
M  ZZM  27 5
M  ZZI  27 1
M  ZZM  28 5
M  ZZI  28 1
M  ZZM  29 5
M  ZZI  29 1
M  ZZM  30 5
M  ZZI  30 1
M  END
> <IX>
1

> <NAME>
Cereblon_6VS3_3.pdb

> <Score>
-18.827793

> <Natom>
30

> <Nflex>
1

> <Hbond>
-3.271406

> <Hphob>
-3.912167

> <VwInt>
-21.058422

> <Dsolv>
10.969388

> <SolEl>
5.563868

> <Eintl>
1.048742

> <RecConf>
ND

> <projPath>
Cereblon_maps/

> <NAME_>
Cereblon_6VS3_3.pdb

$$$$
