Cereblon_5TRF_14.pdb
  MOLSOFT 04032206273D

 30 32  0  0  1  0  0  0  0  0999 V2000
   76.5727   41.1831   40.3075 C   0  0  0  0  0  0  0  0  0  0  0  0
   75.5058   40.3956   39.9025 C   0  0  0  0  0  0  0  0  0  0  0  0
   74.7279   40.8780   38.8668 C   0  0  0  0  0  0  0  0  0  0  0  0
   73.5539   40.2619   38.2443 C   0  0  0  0  0  0  0  0  0  0  0  0
   73.1090   39.1703   38.5675 O   0  0  0  0  0  0  0  0  0  0  0  0
   73.1103   41.1383   37.2698 N   0  0  0  0  0  0  0  0  0  0  0  0
   71.9648   40.8558   36.3850 C   0  0  1  0  0  0  0  0  0  0  0  0
   70.6384   41.0200   37.1250 C   0  0  0  0  0  0  0  0  0  0  0  0
   70.2006   40.2110   37.9287 O   0  0  0  0  0  0  0  0  0  0  0  0
   69.9294   42.1646   36.8807 N   0  0  0  0  0  0  0  0  0  0  0  0
   70.2031   43.1861   36.0231 C   0  0  0  0  0  0  0  0  0  0  0  0
   69.4682   44.1563   35.9775 O   0  0  0  0  0  0  0  0  0  0  0  0
   71.4606   43.0674   35.2067 C   0  0  0  0  0  0  0  0  0  0  0  0
   71.9184   41.6216   35.0598 C   0  0  0  0  0  0  0  0  0  0  0  0
   73.9698   42.3067   37.1711 C   0  0  0  0  0  0  0  0  0  0  0  0
   74.9770   42.0631   38.2351 C   0  0  0  0  0  0  0  0  0  0  0  0
   76.0578   42.8406   38.6171 C   0  0  0  0  0  0  0  0  0  0  0  0
   76.8437   42.3909   39.6696 C   0  0  0  0  0  0  0  0  0  0  0  0
   77.2107   40.8513   41.1211 H   0  0  0  0  0  0  0  0  0  0  0  0
   75.2928   39.4430   40.3768 H   0  0  0  0  0  0  0  0  0  0  0  0
   72.0324   39.7889   36.1436 H   0  0  0  0  0  0  0  0  0  0  0  0
   69.0575   42.2564   37.3855 H   0  0  0  0  0  0  0  0  0  0  0  0
   71.2526   43.4774   34.2154 H   0  0  0  0  0  0  0  0  0  0  0  0
   72.2243   43.7008   35.6616 H   0  0  0  0  0  0  0  0  0  0  0  0
   71.2077   41.1147   34.3966 H   0  0  0  0  0  0  0  0  0  0  0  0
   72.8861   41.5843   34.5514 H   0  0  0  0  0  0  0  0  0  0  0  0
   74.4422   42.3393   36.1843 H   0  0  0  0  0  0  0  0  0  0  0  0
   73.3945   43.2123   37.3709 H   0  0  0  0  0  0  0  0  0  0  0  0
   76.2933   43.7740   38.1154 H   0  0  0  0  0  0  0  0  0  0  0  0
   77.6912   42.9860   39.9961 H   0  0  0  0  0  0  0  0  0  0  0  0
  1 19  1  0  0  0  0
  1 18  2  0  0  0  0
  1  2  1  0  0  0  0
  2  3  2  0  0  0  0
  2 20  1  0  0  0  0
  3  4  1  0  0  0  0
  3 16  1  0  0  0  0
  4  6  1  0  0  0  0
  4  5  2  0  0  0  0
  6 15  1  0  0  0  0
  7  6  1  0  0  0  0
  7 21  1  0  0  0  0
  7  8  1  0  0  0  0
  7 14  1  0  0  0  0
  8  9  2  0  0  0  0
  8 10  1  0  0  0  0
 10 22  1  0  0  0  0
 10 11  1  0  0  0  0
 11 12  2  0  0  0  0
 11 13  1  0  0  0  0
 13 23  1  0  0  0  0
 13 24  1  0  0  0  0
 13 14  1  0  0  0  0
 14 25  1  0  0  0  0
 14 26  1  0  0  0  0
 15 16  1  0  0  0  0
 15 27  1  0  0  0  0
 15 28  1  0  0  0  0
 16 17  2  0  0  0  0
 17 18  1  0  0  0  0
 17 29  1  0  0  0  0
 18 30  1  0  0  0  0
M  ZZC   1 c1
M  ZZC   2 c2
M  ZZC   3 c3
M  ZZC   4 c4
M  ZZC   5 o1
M  ZZC   6 n1
M  ZZC   7 c5
M  ZZC   8 c6
M  ZZC   9 o2
M  ZZC  10 n2
M  ZZC  11 c7
M  ZZC  12 o3
M  ZZC  13 c8
M  ZZC  14 c9
M  ZZC  15 c10
M  ZZC  16 c11
M  ZZC  17 c12
M  ZZC  18 c13
M  ZZC  19 h11
M  ZZC  20 h21
M  ZZC  21 h51
M  ZZC  22 h01
M  ZZC  23 h81
M  ZZC  24 h82
M  ZZC  25 h91
M  ZZC  26 h92
M  ZZC  27 h101
M  ZZC  28 h102
M  ZZC  29 h121
M  ZZC  30 h131
M  ZZM   1 37
M  ZZI   1 125
M  ZZM   2 37
M  ZZI   2 125
M  ZZM   3 37
M  ZZI   3 124
M  ZZM   4 3
M  ZZI   4 121
M  ZZM   5 7
M  ZZI   5 81
M  ZZM   6 10
M  ZZI   6 192
M  ZZM   7 1
M  ZZI   7 113
M  ZZM   8 3
M  ZZI   8 121
M  ZZM   9 7
M  ZZI   9 81
M  ZZM  10 10
M  ZZI  10 191
M  ZZM  11 3
M  ZZI  11 121
M  ZZM  12 7
M  ZZI  12 81
M  ZZM  13 1
M  ZZI  13 112
M  ZZM  14 1
M  ZZI  14 112
M  ZZM  15 1
M  ZZI  15 112
M  ZZM  16 37
M  ZZI  16 124
M  ZZM  17 37
M  ZZI  17 125
M  ZZM  18 37
M  ZZI  18 125
M  ZZM  19 5
M  ZZI  19 1
M  ZZM  20 5
M  ZZI  20 1
M  ZZM  21 5
M  ZZI  21 1
M  ZZM  22 28
M  ZZI  22 11
M  ZZM  23 5
M  ZZI  23 1
M  ZZM  24 5
M  ZZI  24 1
M  ZZM  25 5
M  ZZI  25 1
M  ZZM  26 5
M  ZZI  26 1
M  ZZM  27 5
M  ZZI  27 1
M  ZZM  28 5
M  ZZI  28 1
M  ZZM  29 5
M  ZZI  29 1
M  ZZM  30 5
M  ZZI  30 1
M  END
> <IX>
1

> <NAME>
Cereblon_5TRF_14.pdb

> <Score>
-14.472188

> <Natom>
30

> <Nflex>
1

> <Hbond>
-4.307234

> <Hphob>
-3.924484

> <VwInt>
-21.814898

> <Dsolv>
12.558971

> <SolEl>
11.41815

> <Eintl>
5.523682

> <RecConf>
ND

> <projPath>
Cereblon_maps/

> <NAME_>
Cereblon_5TRF_14.pdb

$$$$
