Cereblon_5J8O_20.pdb
  MOLSOFT 04032206253D

 29 31  0  0  1  0  0  0  0  0999 V2000
   79.0049   42.4911   42.6722 C   0  0  0  0  0  0  0  0  0  0  0  0
   78.1856   42.1964   41.5968 C   0  0  0  0  0  0  0  0  0  0  0  0
   77.2678   41.0784   41.4117 C   0  0  0  0  0  0  0  0  0  0  0  0
   77.0878   40.2181   42.2598 O   0  0  0  0  0  0  0  0  0  0  0  0
   76.7269   41.2206   40.1470 N   0  0  0  0  0  0  0  0  0  0  0  0
   77.2227   42.3477   39.5237 C   0  0  0  0  0  0  0  0  0  0  0  0
   76.9869   42.7652   38.3971 O   0  0  0  0  0  0  0  0  0  0  0  0
   78.1580   42.9592   40.4682 C   0  0  0  0  0  0  0  0  0  0  0  0
   78.9570   44.0752   40.3256 C   0  0  0  0  0  0  0  0  0  0  0  0
   79.8001   44.3846   41.3870 C   0  0  0  0  0  0  0  0  0  0  0  0
   79.8242   43.6063   42.5449 C   0  0  0  0  0  0  0  0  0  0  0  0
   75.7191   40.3651   39.5141 C   0  0  2  0  0  0  0  0  0  0  0  0
   74.3388   40.9333   39.8027 C   0  0  0  0  0  0  0  0  0  0  0  0
   74.1516   42.1197   40.0163 O   0  0  0  0  0  0  0  0  0  0  0  0
   73.2887   40.0512   39.7274 N   0  0  0  0  0  0  0  0  0  0  0  0
   73.3274   38.7050   39.4583 C   0  0  0  0  0  0  0  0  0  0  0  0
   72.3122   38.0305   39.4044 O   0  0  0  0  0  0  0  0  0  0  0  0
   74.6921   38.1243   39.1803 C   0  0  0  0  0  0  0  0  0  0  0  0
   75.7744   38.8947   39.9159 C   0  0  0  0  0  0  0  0  0  0  0  0
   79.0167   41.8756   43.5674 H   0  0  0  0  0  0  0  0  0  0  0  0
   78.9262   44.6762   39.4245 H   0  0  0  0  0  0  0  0  0  0  0  0
   80.4498   45.2493   41.3163 H   0  0  0  0  0  0  0  0  0  0  0  0
   80.4931   43.8743   43.3579 H   0  0  0  0  0  0  0  0  0  0  0  0
   75.8590   40.4526   38.4347 H   0  0  0  0  0  0  0  0  0  0  0  0
   72.3703   40.4446   39.8911 H   0  0  0  0  0  0  0  0  0  0  0  0
   74.6992   37.0786   39.5041 H   0  0  0  0  0  0  0  0  0  0  0  0
   74.8516   38.1467   38.0978 H   0  0  0  0  0  0  0  0  0  0  0  0
   76.7601   38.4740   39.6919 H   0  0  0  0  0  0  0  0  0  0  0  0
   75.6135   38.7755   40.9910 H   0  0  0  0  0  0  0  0  0  0  0  0
  1 20  1  0  0  0  0
  1  2  1  0  0  0  0
  1 11  2  0  0  0  0
  2  3  1  0  0  0  0
  2  8  2  0  0  0  0
  3  4  2  0  0  0  0
  3  5  1  0  0  0  0
  5  6  1  0  0  0  0
 12  5  1  0  0  0  0
  6  7  2  0  0  0  0
  6  8  1  0  0  0  0
  8  9  1  0  0  0  0
  9 21  1  0  0  0  0
  9 10  2  0  0  0  0
 10 22  1  0  0  0  0
 10 11  1  0  0  0  0
 11 23  1  0  0  0  0
 12 24  1  0  0  0  0
 12 13  1  0  0  0  0
 12 19  1  0  0  0  0
 13 14  2  0  0  0  0
 13 15  1  0  0  0  0
 15 25  1  0  0  0  0
 15 16  1  0  0  0  0
 16 17  2  0  0  0  0
 16 18  1  0  0  0  0
 18 26  1  0  0  0  0
 18 27  1  0  0  0  0
 18 19  1  0  0  0  0
 19 28  1  0  0  0  0
 19 29  1  0  0  0  0
M  ZZC   1 c1
M  ZZC   2 c2
M  ZZC   3 c3
M  ZZC   4 o1
M  ZZC   5 n1
M  ZZC   6 c4
M  ZZC   7 o2
M  ZZC   8 c5
M  ZZC   9 c6
M  ZZC  10 c7
M  ZZC  11 c8
M  ZZC  12 c9
M  ZZC  13 c10
M  ZZC  14 o3
M  ZZC  15 n2
M  ZZC  16 c11
M  ZZC  17 o4
M  ZZC  18 c12
M  ZZC  19 c13
M  ZZC  20 h11
M  ZZC  21 h61
M  ZZC  22 h71
M  ZZC  23 h81
M  ZZC  24 h91
M  ZZC  25 h21
M  ZZC  26 h121
M  ZZC  27 h122
M  ZZC  28 h131
M  ZZC  29 h132
M  ZZM   1 37
M  ZZI   1 125
M  ZZM   2 37
M  ZZI   2 124
M  ZZM   3 3
M  ZZI   3 121
M  ZZM   4 7
M  ZZI   4 81
M  ZZM   5 10
M  ZZI   5 192
M  ZZM   6 3
M  ZZI   6 121
M  ZZM   7 7
M  ZZI   7 81
M  ZZM   8 37
M  ZZI   8 124
M  ZZM   9 37
M  ZZI   9 125
M  ZZM  10 37
M  ZZI  10 125
M  ZZM  11 37
M  ZZI  11 125
M  ZZM  12 1
M  ZZI  12 113
M  ZZM  13 3
M  ZZI  13 121
M  ZZM  14 7
M  ZZI  14 81
M  ZZM  15 10
M  ZZI  15 191
M  ZZM  16 3
M  ZZI  16 121
M  ZZM  17 7
M  ZZI  17 81
M  ZZM  18 1
M  ZZI  18 112
M  ZZM  19 1
M  ZZI  19 112
M  ZZM  20 5
M  ZZI  20 1
M  ZZM  21 5
M  ZZI  21 1
M  ZZM  22 5
M  ZZI  22 1
M  ZZM  23 5
M  ZZI  23 1
M  ZZM  24 5
M  ZZI  24 1
M  ZZM  25 28
M  ZZI  25 11
M  ZZM  26 5
M  ZZI  26 1
M  ZZM  27 5
M  ZZI  27 1
M  ZZM  28 5
M  ZZI  28 1
M  ZZM  29 5
M  ZZI  29 1
M  END
> <IX>
1

> <NAME>
Cereblon_5J8O_20.pdb

> <Score>
-19.425645

> <Natom>
29

> <Nflex>
1

> <Hbond>
-3.369039

> <Hphob>
-3.527749

> <VwInt>
-22.709907

> <Dsolv>
12.039378

> <SolEl>
5.523878

> <Eintl>
1.493717

> <RecConf>
ND

> <projPath>
Cereblon_maps/

> <NAME_>
Cereblon_5J8O_20.pdb

$$$$
