Cereblon_6VS3_24.pdb
  MOLSOFT 04032206293D

 31 33  0  0  1  0  0  0  0  0999 V2000
   78.8162   41.6817   43.8143 N   0  0  0  0  0  0  0  0  0  0  0  0
   78.9036   42.4298   42.6301 C   0  0  0  0  0  0  0  0  0  0  0  0
   78.0993   42.1613   41.5354 C   0  0  0  0  0  0  0  0  0  0  0  0
   77.1783   41.0507   41.3300 C   0  0  0  0  0  0  0  0  0  0  0  0
   76.9952   40.1707   42.1581 O   0  0  0  0  0  0  0  0  0  0  0  0
   76.6453   41.2123   40.0666 N   0  0  0  0  0  0  0  0  0  0  0  0
   77.1659   42.3326   39.4515 C   0  0  0  0  0  0  0  0  0  0  0  0
   76.9528   42.7537   38.3219 O   0  0  0  0  0  0  0  0  0  0  0  0
   78.0969   42.9294   40.4106 C   0  0  0  0  0  0  0  0  0  0  0  0
   78.9083   44.0386   40.2885 C   0  0  0  0  0  0  0  0  0  0  0  0
   79.7252   44.3392   41.3724 C   0  0  0  0  0  0  0  0  0  0  0  0
   79.7123   43.5578   42.5294 C   0  0  0  0  0  0  0  0  0  0  0  0
   75.6254   40.3753   39.4311 C   0  0  2  0  0  0  0  0  0  0  0  0
   74.2540   40.9533   39.7363 C   0  0  0  0  0  0  0  0  0  0  0  0
   74.0833   42.1335   39.9930 O   0  0  0  0  0  0  0  0  0  0  0  0
   73.1936   40.0875   39.6234 N   0  0  0  0  0  0  0  0  0  0  0  0
   73.2187   38.7496   39.3118 C   0  0  0  0  0  0  0  0  0  0  0  0
   72.1941   38.0961   39.2044 O   0  0  0  0  0  0  0  0  0  0  0  0
   74.5820   38.1511   39.0585 C   0  0  0  0  0  0  0  0  0  0  0  0
   75.6596   38.9012   39.8214 C   0  0  0  0  0  0  0  0  0  0  0  0
   79.5427   41.7762   44.5208 H   0  0  0  0  0  0  0  0  0  0  0  0
   78.3031   40.7991   43.7859 H   0  0  0  0  0  0  0  0  0  0  0  0
   78.9010   44.6452   39.3906 H   0  0  0  0  0  0  0  0  0  0  0  0
   80.3751   45.2060   41.3261 H   0  0  0  0  0  0  0  0  0  0  0  0
   80.3465   43.8389   43.3647 H   0  0  0  0  0  0  0  0  0  0  0  0
   75.7590   40.4743   38.3527 H   0  0  0  0  0  0  0  0  0  0  0  0
   72.2782   40.4891   39.7844 H   0  0  0  0  0  0  0  0  0  0  0  0
   74.5674   37.1036   39.3758 H   0  0  0  0  0  0  0  0  0  0  0  0
   74.7693   38.1761   37.9806 H   0  0  0  0  0  0  0  0  0  0  0  0
   76.6445   38.4705   39.6138 H   0  0  0  0  0  0  0  0  0  0  0  0
   75.4754   38.7742   40.8921 H   0  0  0  0  0  0  0  0  0  0  0  0
  1  2  1  0  0  0  0
  1 21  1  0  0  0  0
  1 22  1  0  0  0  0
  2  3  1  0  0  0  0
  2 12  2  0  0  0  0
  3  9  2  0  0  0  0
  3  4  1  0  0  0  0
  4  5  2  0  0  0  0
  4  6  1  0  0  0  0
  6  7  1  0  0  0  0
 13  6  1  0  0  0  0
  7  8  2  0  0  0  0
  7  9  1  0  0  0  0
  9 10  1  0  0  0  0
 10 23  1  0  0  0  0
 10 11  2  0  0  0  0
 11 12  1  0  0  0  0
 11 24  1  0  0  0  0
 12 25  1  0  0  0  0
 13 26  1  0  0  0  0
 13 14  1  0  0  0  0
 13 20  1  0  0  0  0
 14 15  2  0  0  0  0
 14 16  1  0  0  0  0
 16 27  1  0  0  0  0
 16 17  1  0  0  0  0
 17 18  2  0  0  0  0
 17 19  1  0  0  0  0
 19 28  1  0  0  0  0
 19 29  1  0  0  0  0
 19 20  1  0  0  0  0
 20 30  1  0  0  0  0
 20 31  1  0  0  0  0
M  ZZC   1 n1
M  ZZC   2 c1
M  ZZC   3 c2
M  ZZC   4 c3
M  ZZC   5 o1
M  ZZC   6 n2
M  ZZC   7 c4
M  ZZC   8 o2
M  ZZC   9 c5
M  ZZC  10 c6
M  ZZC  11 c7
M  ZZC  12 c8
M  ZZC  13 c9
M  ZZC  14 c10
M  ZZC  15 o3
M  ZZC  16 n3
M  ZZC  17 c11
M  ZZC  18 o4
M  ZZC  19 c12
M  ZZC  20 c13
M  ZZC  21 h11
M  ZZC  22 h12
M  ZZC  23 h61
M  ZZC  24 h71
M  ZZC  25 h81
M  ZZC  26 h91
M  ZZC  27 h31
M  ZZC  28 h121
M  ZZC  29 h122
M  ZZC  30 h131
M  ZZC  31 h132
M  ZZM   1 40
M  ZZI   1 224
M  ZZM   2 37
M  ZZI   2 124
M  ZZM   3 37
M  ZZI   3 124
M  ZZM   4 3
M  ZZI   4 121
M  ZZM   5 7
M  ZZI   5 81
M  ZZM   6 10
M  ZZI   6 192
M  ZZM   7 3
M  ZZI   7 121
M  ZZM   8 7
M  ZZI   8 81
M  ZZM   9 37
M  ZZI   9 124
M  ZZM  10 37
M  ZZI  10 125
M  ZZM  11 37
M  ZZI  11 125
M  ZZM  12 37
M  ZZI  12 125
M  ZZM  13 1
M  ZZI  13 113
M  ZZM  14 3
M  ZZI  14 121
M  ZZM  15 7
M  ZZI  15 81
M  ZZM  16 10
M  ZZI  16 191
M  ZZM  17 3
M  ZZI  17 121
M  ZZM  18 7
M  ZZI  18 81
M  ZZM  19 1
M  ZZI  19 112
M  ZZM  20 1
M  ZZI  20 112
M  ZZM  21 28
M  ZZI  21 11
M  ZZM  22 28
M  ZZI  22 11
M  ZZM  23 5
M  ZZI  23 1
M  ZZM  24 5
M  ZZI  24 1
M  ZZM  25 5
M  ZZI  25 1
M  ZZM  26 5
M  ZZI  26 1
M  ZZM  27 28
M  ZZI  27 11
M  ZZM  28 5
M  ZZI  28 1
M  ZZM  29 5
M  ZZI  29 1
M  ZZM  30 5
M  ZZI  30 1
M  ZZM  31 5
M  ZZI  31 1
M  END
> <IX>
1

> <NAME>
Cereblon_6VS3_24.pdb

> <Score>
-18.611466

> <Natom>
31

> <Nflex>
1

> <Hbond>
-3.669138

> <Hphob>
-3.557537

> <VwInt>
-24.244129

> <Dsolv>
15.150657

> <SolEl>
6.571258

> <Eintl>
1.665184

> <RecConf>
ND

> <projPath>
Cereblon_maps/

> <NAME_>
Cereblon_6VS3_24.pdb

$$$$
