Cereblon_6NUQ_20.pdb
  MOLSOFT 04032206293D

 30 32  0  0  1  0  0  0  0  0999 V2000
   75.7000   37.9174   39.7555 C   0  0  0  0  0  0  0  0  0  0  0  0
   74.9989   39.0121   39.2791 C   0  0  0  0  0  0  0  0  0  0  0  0
   75.3067   40.2665   39.7253 C   0  0  0  0  0  0  0  0  0  0  0  0
   74.4121   41.2201   39.0668 C   0  0  0  0  0  0  0  0  0  0  0  0
   74.4148   42.4160   39.3146 O   0  0  0  0  0  0  0  0  0  0  0  0
   73.6353   40.4933   38.1770 N   0  0  0  0  0  0  0  0  0  0  0  0
   72.6042   41.0112   37.2623 C   0  0  1  0  0  0  0  0  0  0  0  0
   71.2839   41.2472   37.9948 C   0  0  0  0  0  0  0  0  0  0  0  0
   70.9190   40.5768   38.9497 O   0  0  0  0  0  0  0  0  0  0  0  0
   70.4561   42.2065   37.4567 N   0  0  0  0  0  0  0  0  0  0  0  0
   70.6669   43.0206   36.3758 C   0  0  0  0  0  0  0  0  0  0  0  0
   69.8687   43.8940   36.0720 O   0  0  0  0  0  0  0  0  0  0  0  0
   71.9205   42.7387   35.5879 C   0  0  0  0  0  0  0  0  0  0  0  0
   73.0383   42.2626   36.5011 C   0  0  0  0  0  0  0  0  0  0  0  0
   73.8892   39.0667   38.2905 C   0  0  0  0  0  0  0  0  0  0  0  0
   76.3148   40.5203   40.6376 C   0  0  0  0  0  0  0  0  0  0  0  0
   77.0212   39.4273   41.1171 C   0  0  0  0  0  0  0  0  0  0  0  0
   76.7151   38.1416   40.6788 C   0  0  0  0  0  0  0  0  0  0  0  0
   75.4744   36.9113   39.4161 H   0  0  0  0  0  0  0  0  0  0  0  0
   72.4093   40.2206   36.5282 H   0  0  0  0  0  0  0  0  0  0  0  0
   69.5876   42.3650   37.9447 H   0  0  0  0  0  0  0  0  0  0  0  0
   71.6893   41.9916   34.8211 H   0  0  0  0  0  0  0  0  0  0  0  0
   72.2221   43.6602   35.0855 H   0  0  0  0  0  0  0  0  0  0  0  0
   73.9370   42.0520   35.9125 H   0  0  0  0  0  0  0  0  0  0  0  0
   73.2990   43.0720   37.1889 H   0  0  0  0  0  0  0  0  0  0  0  0
   74.1845   38.6631   37.3163 H   0  0  0  0  0  0  0  0  0  0  0  0
   72.9908   38.5647   38.6657 H   0  0  0  0  0  0  0  0  0  0  0  0
   76.5533   41.5290   40.9590 H   0  0  0  0  0  0  0  0  0  0  0  0
   77.8205   39.5780   41.8364 H   0  0  0  0  0  0  0  0  0  0  0  0
   77.2831   37.2999   41.0623 H   0  0  0  0  0  0  0  0  0  0  0  0
  1 19  1  0  0  0  0
  1 18  2  0  0  0  0
  1  2  1  0  0  0  0
  2  3  2  0  0  0  0
  2 15  1  0  0  0  0
  3 16  1  0  0  0  0
  3  4  1  0  0  0  0
  4  6  1  0  0  0  0
  4  5  2  0  0  0  0
  6 15  1  0  0  0  0
  7  6  1  0  0  0  0
  7 20  1  0  0  0  0
  7  8  1  0  0  0  0
  7 14  1  0  0  0  0
  8  9  2  0  0  0  0
  8 10  1  0  0  0  0
 10 21  1  0  0  0  0
 10 11  1  0  0  0  0
 11 12  2  0  0  0  0
 11 13  1  0  0  0  0
 13 22  1  0  0  0  0
 13 23  1  0  0  0  0
 13 14  1  0  0  0  0
 14 24  1  0  0  0  0
 14 25  1  0  0  0  0
 15 26  1  0  0  0  0
 15 27  1  0  0  0  0
 16 17  2  0  0  0  0
 16 28  1  0  0  0  0
 17 18  1  0  0  0  0
 17 29  1  0  0  0  0
 18 30  1  0  0  0  0
M  ZZC   1 c1
M  ZZC   2 c2
M  ZZC   3 c3
M  ZZC   4 c4
M  ZZC   5 o1
M  ZZC   6 n1
M  ZZC   7 c5
M  ZZC   8 c6
M  ZZC   9 o2
M  ZZC  10 n2
M  ZZC  11 c7
M  ZZC  12 o3
M  ZZC  13 c8
M  ZZC  14 c9
M  ZZC  15 c10
M  ZZC  16 c11
M  ZZC  17 c12
M  ZZC  18 c13
M  ZZC  19 h11
M  ZZC  20 h51
M  ZZC  21 h21
M  ZZC  22 h81
M  ZZC  23 h82
M  ZZC  24 h91
M  ZZC  25 h92
M  ZZC  26 h101
M  ZZC  27 h102
M  ZZC  28 h111
M  ZZC  29 h121
M  ZZC  30 h131
M  ZZM   1 37
M  ZZI   1 125
M  ZZM   2 37
M  ZZI   2 124
M  ZZM   3 37
M  ZZI   3 124
M  ZZM   4 3
M  ZZI   4 121
M  ZZM   5 7
M  ZZI   5 81
M  ZZM   6 10
M  ZZI   6 192
M  ZZM   7 1
M  ZZI   7 113
M  ZZM   8 3
M  ZZI   8 121
M  ZZM   9 7
M  ZZI   9 81
M  ZZM  10 10
M  ZZI  10 191
M  ZZM  11 3
M  ZZI  11 121
M  ZZM  12 7
M  ZZI  12 81
M  ZZM  13 1
M  ZZI  13 112
M  ZZM  14 1
M  ZZI  14 112
M  ZZM  15 1
M  ZZI  15 112
M  ZZM  16 37
M  ZZI  16 125
M  ZZM  17 37
M  ZZI  17 125
M  ZZM  18 37
M  ZZI  18 125
M  ZZM  19 5
M  ZZI  19 1
M  ZZM  20 5
M  ZZI  20 1
M  ZZM  21 28
M  ZZI  21 11
M  ZZM  22 5
M  ZZI  22 1
M  ZZM  23 5
M  ZZI  23 1
M  ZZM  24 5
M  ZZI  24 1
M  ZZM  25 5
M  ZZI  25 1
M  ZZM  26 5
M  ZZI  26 1
M  ZZM  27 5
M  ZZI  27 1
M  ZZM  28 5
M  ZZI  28 1
M  ZZM  29 5
M  ZZI  29 1
M  ZZM  30 5
M  ZZI  30 1
M  END
> <IX>
1

> <NAME>
Cereblon_6NUQ_20.pdb

> <Score>
-20.661524

> <Natom>
30

> <Nflex>
1

> <Hbond>
-4.610952

> <Hphob>
-3.638179

> <VwInt>
-22.019734

> <Dsolv>
13.268387

> <SolEl>
5.896579

> <Eintl>
1.697443

> <RecConf>
ND

> <projPath>
Cereblon_maps/

> <NAME_>
Cereblon_6NUQ_20.pdb

$$$$
