Cereblon_3IK3_2.pdb
  MOLSOFT 04032206213D

 31 33  0  0  1  0  0  0  0  0999 V2000
   78.4378   43.9739   39.8928 N   0  0  0  0  0  0  0  0  0  0  0  0
   78.0734   42.8661   40.6753 C   0  0  0  0  0  0  0  0  0  0  0  0
   77.1947   41.8895   40.2252 C   0  0  0  0  0  0  0  0  0  0  0  0
   76.3752   41.8510   39.0147 C   0  0  0  0  0  0  0  0  0  0  0  0
   76.4646   42.6444   38.0872 O   0  0  0  0  0  0  0  0  0  0  0  0
   75.5087   40.7863   39.1661 N   0  0  0  0  0  0  0  0  0  0  0  0
   75.8467   40.0394   40.2755 C   0  0  0  0  0  0  0  0  0  0  0  0
   75.3891   38.9786   40.6735 O   0  0  0  0  0  0  0  0  0  0  0  0
   76.8879   40.7896   40.9711 C   0  0  0  0  0  0  0  0  0  0  0  0
   77.4502   40.5562   42.2121 C   0  0  0  0  0  0  0  0  0  0  0  0
   78.3527   41.5036   42.6765 C   0  0  0  0  0  0  0  0  0  0  0  0
   78.6721   42.6267   41.9109 C   0  0  0  0  0  0  0  0  0  0  0  0
   74.2568   40.6827   38.4022 C   0  0  2  0  0  0  0  0  0  0  0  0
   73.2322   41.4726   39.1984 C   0  0  0  0  0  0  0  0  0  0  0  0
   73.5602   42.3199   40.0136 O   0  0  0  0  0  0  0  0  0  0  0  0
   71.9126   41.2293   38.9028 N   0  0  0  0  0  0  0  0  0  0  0  0
   71.3946   40.2614   38.0764 C   0  0  0  0  0  0  0  0  0  0  0  0
   70.1904   40.1560   37.8988 O   0  0  0  0  0  0  0  0  0  0  0  0
   72.4086   39.3809   37.3773 C   0  0  0  0  0  0  0  0  0  0  0  0
   73.7020   39.2785   38.1750 C   0  0  0  0  0  0  0  0  0  0  0  0
   78.8250   44.7782   40.3807 H   0  0  0  0  0  0  0  0  0  0  0  0
   77.8763   44.1570   39.0616 H   0  0  0  0  0  0  0  0  0  0  0  0
   77.1875   39.6877   42.8075 H   0  0  0  0  0  0  0  0  0  0  0  0
   78.8146   41.3692   43.6500 H   0  0  0  0  0  0  0  0  0  0  0  0
   79.3910   43.3396   42.3018 H   0  0  0  0  0  0  0  0  0  0  0  0
   74.3861   41.2170   37.4534 H   0  0  0  0  0  0  0  0  0  0  0  0
   71.2434   41.8317   39.3658 H   0  0  0  0  0  0  0  0  0  0  0  0
   71.9732   38.3847   37.2501 H   0  0  0  0  0  0  0  0  0  0  0  0
   72.5966   39.7987   36.3822 H   0  0  0  0  0  0  0  0  0  0  0  0
   73.4871   38.7839   39.1282 H   0  0  0  0  0  0  0  0  0  0  0  0
   74.4230   38.6500   37.6449 H   0  0  0  0  0  0  0  0  0  0  0  0
  1  2  1  0  0  0  0
  1 21  1  0  0  0  0
  1 22  1  0  0  0  0
  2  3  1  0  0  0  0
  2 12  2  0  0  0  0
  3  9  2  0  0  0  0
  3  4  1  0  0  0  0
  4  5  2  0  0  0  0
  4  6  1  0  0  0  0
  6  7  1  0  0  0  0
 13  6  1  0  0  0  0
  7  8  2  0  0  0  0
  7  9  1  0  0  0  0
  9 10  1  0  0  0  0
 10 23  1  0  0  0  0
 10 11  2  0  0  0  0
 11 12  1  0  0  0  0
 11 24  1  0  0  0  0
 12 25  1  0  0  0  0
 13 26  1  0  0  0  0
 13 14  1  0  0  0  0
 13 20  1  0  0  0  0
 14 15  2  0  0  0  0
 14 16  1  0  0  0  0
 16 27  1  0  0  0  0
 16 17  1  0  0  0  0
 17 18  2  0  0  0  0
 17 19  1  0  0  0  0
 19 28  1  0  0  0  0
 19 29  1  0  0  0  0
 19 20  1  0  0  0  0
 20 30  1  0  0  0  0
 20 31  1  0  0  0  0
M  ZZC   1 n1
M  ZZC   2 c1
M  ZZC   3 c2
M  ZZC   4 c3
M  ZZC   5 o1
M  ZZC   6 n2
M  ZZC   7 c4
M  ZZC   8 o2
M  ZZC   9 c5
M  ZZC  10 c6
M  ZZC  11 c7
M  ZZC  12 c8
M  ZZC  13 c9
M  ZZC  14 c10
M  ZZC  15 o3
M  ZZC  16 n3
M  ZZC  17 c11
M  ZZC  18 o4
M  ZZC  19 c12
M  ZZC  20 c13
M  ZZC  21 h11
M  ZZC  22 h12
M  ZZC  23 h61
M  ZZC  24 h71
M  ZZC  25 h81
M  ZZC  26 h91
M  ZZC  27 h31
M  ZZC  28 h121
M  ZZC  29 h122
M  ZZC  30 h131
M  ZZC  31 h132
M  ZZM   1 40
M  ZZI   1 224
M  ZZM   2 37
M  ZZI   2 124
M  ZZM   3 37
M  ZZI   3 124
M  ZZM   4 3
M  ZZI   4 121
M  ZZM   5 7
M  ZZI   5 81
M  ZZM   6 10
M  ZZI   6 192
M  ZZM   7 3
M  ZZI   7 121
M  ZZM   8 7
M  ZZI   8 81
M  ZZM   9 37
M  ZZI   9 124
M  ZZM  10 37
M  ZZI  10 125
M  ZZM  11 37
M  ZZI  11 125
M  ZZM  12 37
M  ZZI  12 125
M  ZZM  13 1
M  ZZI  13 113
M  ZZM  14 3
M  ZZI  14 121
M  ZZM  15 7
M  ZZI  15 81
M  ZZM  16 10
M  ZZI  16 191
M  ZZM  17 3
M  ZZI  17 121
M  ZZM  18 7
M  ZZI  18 81
M  ZZM  19 1
M  ZZI  19 112
M  ZZM  20 1
M  ZZI  20 112
M  ZZM  21 28
M  ZZI  21 11
M  ZZM  22 28
M  ZZI  22 11
M  ZZM  23 5
M  ZZI  23 1
M  ZZM  24 5
M  ZZI  24 1
M  ZZM  25 5
M  ZZI  25 1
M  ZZM  26 5
M  ZZI  26 1
M  ZZM  27 28
M  ZZI  27 11
M  ZZM  28 5
M  ZZI  28 1
M  ZZM  29 5
M  ZZI  29 1
M  ZZM  30 5
M  ZZI  30 1
M  ZZM  31 5
M  ZZI  31 1
M  END
> <IX>
1

> <NAME>
Cereblon_3IK3_2.pdb

> <Score>
-17.147116

> <Natom>
31

> <Nflex>
1

> <Hbond>
-4.793401

> <Hphob>
-3.501956

> <VwInt>
-23.148502

> <Dsolv>
17.551274

> <SolEl>
5.075176

> <Eintl>
5.603215

> <RecConf>
ND

> <projPath>
Cereblon_maps/

> <NAME_>
Cereblon_3IK3_2.pdb

$$$$
