Cereblon_1HWK_36.pdb
  MOLSOFT 04032206193D

 30 32  0  0  1  0  0  0  0  0999 V2000
   75.6974   37.9197   39.7599 C   0  0  0  0  0  0  0  0  0  0  0  0
   74.9971   39.0154   39.2845 C   0  0  0  0  0  0  0  0  0  0  0  0
   75.3074   40.2686   39.7308 C   0  0  0  0  0  0  0  0  0  0  0  0
   74.4185   41.2253   39.0644 C   0  0  0  0  0  0  0  0  0  0  0  0
   74.4173   42.4213   39.3135 O   0  0  0  0  0  0  0  0  0  0  0  0
   73.6466   40.4990   38.1698 N   0  0  0  0  0  0  0  0  0  0  0  0
   72.6117   41.0148   37.2592 C   0  0  1  0  0  0  0  0  0  0  0  0
   71.2819   41.2405   37.9789 C   0  0  0  0  0  0  0  0  0  0  0  0
   70.9080   40.5607   38.9238 O   0  0  0  0  0  0  0  0  0  0  0  0
   70.4546   42.1980   37.4380 N   0  0  0  0  0  0  0  0  0  0  0  0
   70.6726   43.0232   36.3670 C   0  0  0  0  0  0  0  0  0  0  0  0
   69.8804   43.9067   36.0765 O   0  0  0  0  0  0  0  0  0  0  0  0
   71.9304   42.7479   35.5837 C   0  0  0  0  0  0  0  0  0  0  0  0
   73.0461   42.2691   36.4998 C   0  0  0  0  0  0  0  0  0  0  0  0
   73.8886   39.0711   38.2954 C   0  0  0  0  0  0  0  0  0  0  0  0
   76.3141   40.5227   40.6454 C   0  0  0  0  0  0  0  0  0  0  0  0
   77.0184   39.4287   41.1257 C   0  0  0  0  0  0  0  0  0  0  0  0
   76.7119   38.1442   40.6841 C   0  0  0  0  0  0  0  0  0  0  0  0
   75.4726   36.9141   39.4185 H   0  0  0  0  0  0  0  0  0  0  0  0
   72.4336   40.2233   36.5219 H   0  0  0  0  0  0  0  0  0  0  0  0
   69.5828   42.3481   37.9228 H   0  0  0  0  0  0  0  0  0  0  0  0
   71.7052   42.0047   34.8111 H   0  0  0  0  0  0  0  0  0  0  0  0
   72.2299   43.6744   35.0900 H   0  0  0  0  0  0  0  0  0  0  0  0
   73.9475   42.0600   35.9150 H   0  0  0  0  0  0  0  0  0  0  0  0
   73.2967   43.0784   37.1912 H   0  0  0  0  0  0  0  0  0  0  0  0
   74.1794   38.6542   37.3258 H   0  0  0  0  0  0  0  0  0  0  0  0
   72.9825   38.5834   38.6711 H   0  0  0  0  0  0  0  0  0  0  0  0
   76.5515   41.5317   40.9671 H   0  0  0  0  0  0  0  0  0  0  0  0
   77.8148   39.5793   41.8483 H   0  0  0  0  0  0  0  0  0  0  0  0
   77.2816   37.3022   41.0644 H   0  0  0  0  0  0  0  0  0  0  0  0
  1 19  1  0  0  0  0
  1 18  2  0  0  0  0
  1  2  1  0  0  0  0
  2  3  2  0  0  0  0
  2 15  1  0  0  0  0
  3 16  1  0  0  0  0
  3  4  1  0  0  0  0
  4  6  1  0  0  0  0
  4  5  2  0  0  0  0
  6 15  1  0  0  0  0
  7  6  1  0  0  0  0
  7 20  1  0  0  0  0
  7  8  1  0  0  0  0
  7 14  1  0  0  0  0
  8  9  2  0  0  0  0
  8 10  1  0  0  0  0
 10 21  1  0  0  0  0
 10 11  1  0  0  0  0
 11 12  2  0  0  0  0
 11 13  1  0  0  0  0
 13 22  1  0  0  0  0
 13 23  1  0  0  0  0
 13 14  1  0  0  0  0
 14 24  1  0  0  0  0
 14 25  1  0  0  0  0
 15 26  1  0  0  0  0
 15 27  1  0  0  0  0
 16 17  2  0  0  0  0
 16 28  1  0  0  0  0
 17 18  1  0  0  0  0
 17 29  1  0  0  0  0
 18 30  1  0  0  0  0
M  ZZC   1 c1
M  ZZC   2 c2
M  ZZC   3 c3
M  ZZC   4 c4
M  ZZC   5 o1
M  ZZC   6 n1
M  ZZC   7 c5
M  ZZC   8 c6
M  ZZC   9 o2
M  ZZC  10 n2
M  ZZC  11 c7
M  ZZC  12 o3
M  ZZC  13 c8
M  ZZC  14 c9
M  ZZC  15 c10
M  ZZC  16 c11
M  ZZC  17 c12
M  ZZC  18 c13
M  ZZC  19 h11
M  ZZC  20 h51
M  ZZC  21 h21
M  ZZC  22 h81
M  ZZC  23 h82
M  ZZC  24 h91
M  ZZC  25 h92
M  ZZC  26 h101
M  ZZC  27 h102
M  ZZC  28 h111
M  ZZC  29 h121
M  ZZC  30 h131
M  ZZM   1 37
M  ZZI   1 125
M  ZZM   2 37
M  ZZI   2 124
M  ZZM   3 37
M  ZZI   3 124
M  ZZM   4 3
M  ZZI   4 121
M  ZZM   5 7
M  ZZI   5 81
M  ZZM   6 10
M  ZZI   6 192
M  ZZM   7 1
M  ZZI   7 113
M  ZZM   8 3
M  ZZI   8 121
M  ZZM   9 7
M  ZZI   9 81
M  ZZM  10 10
M  ZZI  10 191
M  ZZM  11 3
M  ZZI  11 121
M  ZZM  12 7
M  ZZI  12 81
M  ZZM  13 1
M  ZZI  13 112
M  ZZM  14 1
M  ZZI  14 112
M  ZZM  15 1
M  ZZI  15 112
M  ZZM  16 37
M  ZZI  16 125
M  ZZM  17 37
M  ZZI  17 125
M  ZZM  18 37
M  ZZI  18 125
M  ZZM  19 5
M  ZZI  19 1
M  ZZM  20 5
M  ZZI  20 1
M  ZZM  21 28
M  ZZI  21 11
M  ZZM  22 5
M  ZZI  22 1
M  ZZM  23 5
M  ZZI  23 1
M  ZZM  24 5
M  ZZI  24 1
M  ZZM  25 5
M  ZZI  25 1
M  ZZM  26 5
M  ZZI  26 1
M  ZZM  27 5
M  ZZI  27 1
M  ZZM  28 5
M  ZZI  28 1
M  ZZM  29 5
M  ZZI  29 1
M  ZZM  30 5
M  ZZI  30 1
M  END
> <IX>
1

> <NAME>
Cereblon_1HWK_36.pdb

> <Score>
-20.550477

> <Natom>
30

> <Nflex>
1

> <Hbond>
-4.644298

> <Hphob>
-3.575978

> <VwInt>
-21.968164

> <Dsolv>
13.332766

> <SolEl>
5.849265

> <Eintl>
1.839294

> <RecConf>
ND

> <projPath>
Cereblon_maps/

> <NAME_>
Cereblon_1HWK_36.pdb

$$$$
