Cereblon_5P9J_12.pdb
  MOLSOFT 04032206263D

 36 38  0  0  1  0  0  0  0  0999 V2000
   79.4362   42.5475   42.6974 O   0  0  0  0  0  0  0  0  0  0  0  0
   78.8483   43.0493   41.7509 C   0  0  0  0  0  0  0  0  0  0  0  0
   77.7607   42.5201   41.0699 N   0  0  0  0  0  0  0  0  0  0  0  0
   77.2893   41.1832   41.1555 C   0  0  0  0  0  0  0  0  0  0  0  0
   76.2565   40.7641   40.3244 C   0  0  0  0  0  0  0  0  0  0  0  0
   75.3974   41.5303   39.4212 C   0  0  0  0  0  0  0  0  0  0  0  0
   75.4337   42.7494   39.3494 O   0  0  0  0  0  0  0  0  0  0  0  0
   74.5753   40.6216   38.7831 N   0  0  0  0  0  0  0  0  0  0  0  0
   74.8142   39.3460   39.2509 C   0  0  0  0  0  0  0  0  0  0  0  0
   74.2724   38.2932   38.9475 O   0  0  0  0  0  0  0  0  0  0  0  0
   75.8841   39.4574   40.2387 C   0  0  0  0  0  0  0  0  0  0  0  0
   76.4748   38.4683   40.9999 C   0  0  0  0  0  0  0  0  0  0  0  0
   77.4557   38.8692   41.8946 C   0  0  0  0  0  0  0  0  0  0  0  0
   77.8521   40.2026   41.9782 C   0  0  0  0  0  0  0  0  0  0  0  0
   73.4965   40.9187   37.8283 C   0  0  1  0  0  0  0  0  0  0  0  0
   72.1955   41.1923   38.5753 C   0  0  0  0  0  0  0  0  0  0  0  0
   71.9758   40.7954   39.7105 O   0  0  0  0  0  0  0  0  0  0  0  0
   71.2286   41.8617   37.8584 N   0  0  0  0  0  0  0  0  0  0  0  0
   71.3413   42.4789   36.6353 C   0  0  0  0  0  0  0  0  0  0  0  0
   70.4503   43.1760   36.1742 O   0  0  0  0  0  0  0  0  0  0  0  0
   72.6324   42.2261   35.8966 C   0  0  0  0  0  0  0  0  0  0  0  0
   73.7826   42.0793   36.8773 C   0  0  0  0  0  0  0  0  0  0  0  0
   79.3103   44.3683   41.1915 C   0  0  0  0  0  0  0  0  0  0  0  0
   77.2753   43.1204   40.4093 H   0  0  0  0  0  0  0  0  0  0  0  0
   76.1718   37.4291   40.9240 H   0  0  0  0  0  0  0  0  0  0  0  0
   77.9308   38.1330   42.5363 H   0  0  0  0  0  0  0  0  0  0  0  0
   78.6266   40.4484   42.6938 H   0  0  0  0  0  0  0  0  0  0  0  0
   73.3231   40.0071   37.2445 H   0  0  0  0  0  0  0  0  0  0  0  0
   70.3679   42.0388   38.3541 H   0  0  0  0  0  0  0  0  0  0  0  0
   72.5150   41.3264   35.2834 H   0  0  0  0  0  0  0  0  0  0  0  0
   72.8199   43.0712   35.2282 H   0  0  0  0  0  0  0  0  0  0  0  0
   74.7171   41.9142   36.3363 H   0  0  0  0  0  0  0  0  0  0  0  0
   73.8970   43.0170   37.4286 H   0  0  0  0  0  0  0  0  0  0  0  0
   80.3555   44.2752   40.8820 H   0  0  0  0  0  0  0  0  0  0  0  0
   79.2289   45.1382   41.9648 H   0  0  0  0  0  0  0  0  0  0  0  0
   78.7219   44.6702   40.3195 H   0  0  0  0  0  0  0  0  0  0  0  0
  1  2  2  0  0  0  0
  2  3  1  0  0  0  0
  2 23  1  0  0  0  0
  3  4  1  0  0  0  0
  3 24  1  0  0  0  0
  4  5  1  0  0  0  0
  4 14  2  0  0  0  0
  5 11  2  0  0  0  0
  5  6  1  0  0  0  0
  6  7  2  0  0  0  0
  6  8  1  0  0  0  0
  8  9  1  0  0  0  0
 15  8  1  0  0  0  0
  9 10  2  0  0  0  0
  9 11  1  0  0  0  0
 11 12  1  0  0  0  0
 12 25  1  0  0  0  0
 12 13  2  0  0  0  0
 13 14  1  0  0  0  0
 13 26  1  0  0  0  0
 14 27  1  0  0  0  0
 15 28  1  0  0  0  0
 15 16  1  0  0  0  0
 15 22  1  0  0  0  0
 16 17  2  0  0  0  0
 16 18  1  0  0  0  0
 18 29  1  0  0  0  0
 18 19  1  0  0  0  0
 19 20  2  0  0  0  0
 19 21  1  0  0  0  0
 21 30  1  0  0  0  0
 21 31  1  0  0  0  0
 21 22  1  0  0  0  0
 22 32  1  0  0  0  0
 22 33  1  0  0  0  0
 23 34  1  0  0  0  0
 23 35  1  0  0  0  0
 23 36  1  0  0  0  0
M  ZZC   1 o1
M  ZZC   2 c1
M  ZZC   3 n1
M  ZZC   4 c2
M  ZZC   5 c3
M  ZZC   6 c4
M  ZZC   7 o2
M  ZZC   8 n2
M  ZZC   9 c5
M  ZZC  10 o3
M  ZZC  11 c6
M  ZZC  12 c7
M  ZZC  13 c8
M  ZZC  14 c9
M  ZZC  15 c10
M  ZZC  16 c11
M  ZZC  17 o4
M  ZZC  18 n3
M  ZZC  19 c12
M  ZZC  20 o5
M  ZZC  21 c13
M  ZZC  22 c14
M  ZZC  23 c15
M  ZZC  24 h11
M  ZZC  25 h71
M  ZZC  26 h81
M  ZZC  27 h91
M  ZZC  28 h101
M  ZZC  29 h31
M  ZZC  30 h131
M  ZZC  31 h132
M  ZZC  32 h141
M  ZZC  33 h142
M  ZZC  34 h151
M  ZZC  35 h152
M  ZZC  36 h153
M  ZZM   1 7
M  ZZI   1 81
M  ZZM   2 3
M  ZZI   2 121
M  ZZM   3 10
M  ZZI   3 191
M  ZZM   4 37
M  ZZI   4 124
M  ZZM   5 37
M  ZZI   5 124
M  ZZM   6 3
M  ZZI   6 121
M  ZZM   7 7
M  ZZI   7 81
M  ZZM   8 10
M  ZZI   8 192
M  ZZM   9 3
M  ZZI   9 121
M  ZZM  10 7
M  ZZI  10 81
M  ZZM  11 37
M  ZZI  11 124
M  ZZM  12 37
M  ZZI  12 125
M  ZZM  13 37
M  ZZI  13 125
M  ZZM  14 37
M  ZZI  14 125
M  ZZM  15 1
M  ZZI  15 113
M  ZZM  16 3
M  ZZI  16 121
M  ZZM  17 7
M  ZZI  17 81
M  ZZM  18 10
M  ZZI  18 191
M  ZZM  19 3
M  ZZI  19 121
M  ZZM  20 7
M  ZZI  20 81
M  ZZM  21 1
M  ZZI  21 112
M  ZZM  22 1
M  ZZI  22 112
M  ZZM  23 1
M  ZZI  23 111
M  ZZM  24 28
M  ZZI  24 11
M  ZZM  25 5
M  ZZI  25 1
M  ZZM  26 5
M  ZZI  26 1
M  ZZM  27 5
M  ZZI  27 1
M  ZZM  28 5
M  ZZI  28 1
M  ZZM  29 28
M  ZZI  29 11
M  ZZM  30 5
M  ZZI  30 1
M  ZZM  31 5
M  ZZI  31 1
M  ZZM  32 5
M  ZZI  32 1
M  ZZM  33 5
M  ZZI  33 1
M  ZZM  34 5
M  ZZI  34 1
M  ZZM  35 5
M  ZZI  35 1
M  ZZM  36 5
M  ZZI  36 1
M  END
> <IX>
1

> <NAME>
Cereblon_5P9J_12.pdb

> <Score>
-17.802803

> <Natom>
36

> <Nflex>
1

> <Hbond>
-2.649031

> <Hphob>
-4.380959

> <VwInt>
-28.861608

> <Dsolv>
16.544889

> <SolEl>
8.946941

> <Eintl>
2.970747

> <RecConf>
ND

> <projPath>
Cereblon_maps/

> <NAME_>
Cereblon_5P9J_12.pdb

$$$$
