Cereblon_4CI3_11.pdb
  MOLSOFT 04032206233D

 31 33  0  0  1  0  0  0  0  0999 V2000
   78.8176   41.6828   43.8110 N   0  0  0  0  0  0  0  0  0  0  0  0
   78.9019   42.4333   42.6284 C   0  0  0  0  0  0  0  0  0  0  0  0
   78.0993   42.1633   41.5332 C   0  0  0  0  0  0  0  0  0  0  0  0
   77.1786   41.0522   41.3276 C   0  0  0  0  0  0  0  0  0  0  0  0
   76.9915   40.1751   42.1579 O   0  0  0  0  0  0  0  0  0  0  0  0
   76.6461   41.2122   40.0638 N   0  0  0  0  0  0  0  0  0  0  0  0
   77.1664   42.3325   39.4484 C   0  0  0  0  0  0  0  0  0  0  0  0
   76.9519   42.7539   38.3192 O   0  0  0  0  0  0  0  0  0  0  0  0
   78.0968   42.9305   40.4078 C   0  0  0  0  0  0  0  0  0  0  0  0
   78.9054   44.0420   40.2875 C   0  0  0  0  0  0  0  0  0  0  0  0
   79.7203   44.3444   41.3721 C   0  0  0  0  0  0  0  0  0  0  0  0
   79.7095   43.5622   42.5285 C   0  0  0  0  0  0  0  0  0  0  0  0
   75.6255   40.3754   39.4291 C   0  0  2  0  0  0  0  0  0  0  0  0
   74.2550   40.9570   39.7327 C   0  0  0  0  0  0  0  0  0  0  0  0
   74.0869   42.1374   39.9900 O   0  0  0  0  0  0  0  0  0  0  0  0
   73.1925   40.0941   39.6160 N   0  0  0  0  0  0  0  0  0  0  0  0
   73.2153   38.7564   39.3032 C   0  0  0  0  0  0  0  0  0  0  0  0
   72.1889   38.1065   39.1897 O   0  0  0  0  0  0  0  0  0  0  0  0
   74.5780   38.1540   39.0568 C   0  0  0  0  0  0  0  0  0  0  0  0
   75.6555   38.9022   39.8213 C   0  0  0  0  0  0  0  0  0  0  0  0
   79.5269   41.7935   44.5325 H   0  0  0  0  0  0  0  0  0  0  0  0
   78.2902   40.8082   43.7933 H   0  0  0  0  0  0  0  0  0  0  0  0
   78.9000   44.6470   39.3885 H   0  0  0  0  0  0  0  0  0  0  0  0
   80.3667   45.2138   41.3277 H   0  0  0  0  0  0  0  0  0  0  0  0
   80.3399   43.8457   43.3659 H   0  0  0  0  0  0  0  0  0  0  0  0
   75.7605   40.4738   38.3508 H   0  0  0  0  0  0  0  0  0  0  0  0
   72.2775   40.4985   39.7722 H   0  0  0  0  0  0  0  0  0  0  0  0
   74.5595   37.1074   39.3770 H   0  0  0  0  0  0  0  0  0  0  0  0
   74.7689   38.1754   37.9794 H   0  0  0  0  0  0  0  0  0  0  0  0
   75.4680   38.7783   40.8918 H   0  0  0  0  0  0  0  0  0  0  0  0
   76.6397   38.4676   39.6189 H   0  0  0  0  0  0  0  0  0  0  0  0
  1  2  1  0  0  0  0
  1 21  1  0  0  0  0
  1 22  1  0  0  0  0
  2  3  1  0  0  0  0
  2 12  2  0  0  0  0
  3  9  2  0  0  0  0
  3  4  1  0  0  0  0
  4  5  2  0  0  0  0
  4  6  1  0  0  0  0
  6  7  1  0  0  0  0
 13  6  1  0  0  0  0
  7  8  2  0  0  0  0
  7  9  1  0  0  0  0
  9 10  1  0  0  0  0
 10 23  1  0  0  0  0
 10 11  2  0  0  0  0
 11 12  1  0  0  0  0
 11 24  1  0  0  0  0
 12 25  1  0  0  0  0
 13 26  1  0  0  0  0
 13 14  1  0  0  0  0
 13 20  1  0  0  0  0
 14 15  2  0  0  0  0
 14 16  1  0  0  0  0
 16 27  1  0  0  0  0
 16 17  1  0  0  0  0
 17 18  2  0  0  0  0
 17 19  1  0  0  0  0
 19 28  1  0  0  0  0
 19 29  1  0  0  0  0
 19 20  1  0  0  0  0
 20 30  1  0  0  0  0
 20 31  1  0  0  0  0
M  ZZC   1 n1
M  ZZC   2 c1
M  ZZC   3 c2
M  ZZC   4 c3
M  ZZC   5 o1
M  ZZC   6 n2
M  ZZC   7 c4
M  ZZC   8 o2
M  ZZC   9 c5
M  ZZC  10 c6
M  ZZC  11 c7
M  ZZC  12 c8
M  ZZC  13 c9
M  ZZC  14 c10
M  ZZC  15 o3
M  ZZC  16 n3
M  ZZC  17 c11
M  ZZC  18 o4
M  ZZC  19 c12
M  ZZC  20 c13
M  ZZC  21 h11
M  ZZC  22 h12
M  ZZC  23 h61
M  ZZC  24 h71
M  ZZC  25 h81
M  ZZC  26 h91
M  ZZC  27 h31
M  ZZC  28 h121
M  ZZC  29 h122
M  ZZC  30 h131
M  ZZC  31 h132
M  ZZM   1 40
M  ZZI   1 224
M  ZZM   2 37
M  ZZI   2 124
M  ZZM   3 37
M  ZZI   3 124
M  ZZM   4 3
M  ZZI   4 121
M  ZZM   5 7
M  ZZI   5 81
M  ZZM   6 10
M  ZZI   6 192
M  ZZM   7 3
M  ZZI   7 121
M  ZZM   8 7
M  ZZI   8 81
M  ZZM   9 37
M  ZZI   9 124
M  ZZM  10 37
M  ZZI  10 125
M  ZZM  11 37
M  ZZI  11 125
M  ZZM  12 37
M  ZZI  12 125
M  ZZM  13 1
M  ZZI  13 113
M  ZZM  14 3
M  ZZI  14 121
M  ZZM  15 7
M  ZZI  15 81
M  ZZM  16 10
M  ZZI  16 191
M  ZZM  17 3
M  ZZI  17 121
M  ZZM  18 7
M  ZZI  18 81
M  ZZM  19 1
M  ZZI  19 112
M  ZZM  20 1
M  ZZI  20 112
M  ZZM  21 28
M  ZZI  21 11
M  ZZM  22 28
M  ZZI  22 11
M  ZZM  23 5
M  ZZI  23 1
M  ZZM  24 5
M  ZZI  24 1
M  ZZM  25 5
M  ZZI  25 1
M  ZZM  26 5
M  ZZI  26 1
M  ZZM  27 28
M  ZZI  27 11
M  ZZM  28 5
M  ZZI  28 1
M  ZZM  29 5
M  ZZI  29 1
M  ZZM  30 5
M  ZZI  30 1
M  ZZM  31 5
M  ZZI  31 1
M  END
> <IX>
1

> <NAME>
Cereblon_4CI3_11.pdb

> <Score>
-18.488338

> <Natom>
31

> <Nflex>
1

> <Hbond>
-3.686607

> <Hphob>
-3.554775

> <VwInt>
-24.187856

> <Dsolv>
15.082744

> <SolEl>
6.820005

> <Eintl>
1.658453

> <RecConf>
ND

> <projPath>
Cereblon_maps/

> <NAME_>
Cereblon_4CI3_11.pdb

$$$$
