Cereblon_6CB5_1.pdb
  MOLSOFT 04032206283D

 31 33  0  0  1  0  0  0  0  0999 V2000
   78.8137   41.6793   43.8183 N   0  0  0  0  0  0  0  0  0  0  0  0
   78.9070   42.4234   42.6316 C   0  0  0  0  0  0  0  0  0  0  0  0
   78.1014   42.1570   41.5373 C   0  0  0  0  0  0  0  0  0  0  0  0
   77.1804   41.0463   41.3310 C   0  0  0  0  0  0  0  0  0  0  0  0
   76.9998   40.1636   42.1568 O   0  0  0  0  0  0  0  0  0  0  0  0
   76.6453   41.2102   40.0687 N   0  0  0  0  0  0  0  0  0  0  0  0
   77.1658   42.3309   39.4543 C   0  0  0  0  0  0  0  0  0  0  0  0
   76.9522   42.7535   38.3254 O   0  0  0  0  0  0  0  0  0  0  0  0
   78.0971   42.9267   40.4136 C   0  0  0  0  0  0  0  0  0  0  0  0
   78.9074   44.0369   40.2930 C   0  0  0  0  0  0  0  0  0  0  0  0
   79.7235   44.3376   41.3773 C   0  0  0  0  0  0  0  0  0  0  0  0
   79.7115   43.5548   42.5333 C   0  0  0  0  0  0  0  0  0  0  0  0
   75.6256   40.3736   39.4324 C   0  0  2  0  0  0  0  0  0  0  0  0
   74.2541   40.9525   39.7362 C   0  0  0  0  0  0  0  0  0  0  0  0
   74.0839   42.1328   39.9927 O   0  0  0  0  0  0  0  0  0  0  0  0
   73.1932   40.0874   39.6233 N   0  0  0  0  0  0  0  0  0  0  0  0
   73.2179   38.7495   39.3114 C   0  0  0  0  0  0  0  0  0  0  0  0
   72.1930   38.0963   39.2034 O   0  0  0  0  0  0  0  0  0  0  0  0
   74.5809   38.1508   39.0581 C   0  0  0  0  0  0  0  0  0  0  0  0
   75.6585   38.8993   39.8224 C   0  0  0  0  0  0  0  0  0  0  0  0
   79.5532   41.7624   44.5123 H   0  0  0  0  0  0  0  0  0  0  0  0
   78.3237   40.7843   43.7769 H   0  0  0  0  0  0  0  0  0  0  0  0
   78.8990   44.6442   39.3955 H   0  0  0  0  0  0  0  0  0  0  0  0
   80.3704   45.2067   41.3327 H   0  0  0  0  0  0  0  0  0  0  0  0
   80.3431   43.8370   43.3702 H   0  0  0  0  0  0  0  0  0  0  0  0
   75.7605   40.4727   38.3540 H   0  0  0  0  0  0  0  0  0  0  0  0
   72.2778   40.4892   39.7840 H   0  0  0  0  0  0  0  0  0  0  0  0
   74.5653   37.1029   39.3743 H   0  0  0  0  0  0  0  0  0  0  0  0
   74.7688   38.1771   37.9803 H   0  0  0  0  0  0  0  0  0  0  0  0
   76.6432   38.4679   39.6154 H   0  0  0  0  0  0  0  0  0  0  0  0
   75.4730   38.7728   40.8930 H   0  0  0  0  0  0  0  0  0  0  0  0
  1  2  1  0  0  0  0
  1 21  1  0  0  0  0
  1 22  1  0  0  0  0
  2  3  1  0  0  0  0
  2 12  2  0  0  0  0
  3  9  2  0  0  0  0
  3  4  1  0  0  0  0
  4  5  2  0  0  0  0
  4  6  1  0  0  0  0
  6  7  1  0  0  0  0
 13  6  1  0  0  0  0
  7  8  2  0  0  0  0
  7  9  1  0  0  0  0
  9 10  1  0  0  0  0
 10 23  1  0  0  0  0
 10 11  2  0  0  0  0
 11 12  1  0  0  0  0
 11 24  1  0  0  0  0
 12 25  1  0  0  0  0
 13 26  1  0  0  0  0
 13 14  1  0  0  0  0
 13 20  1  0  0  0  0
 14 15  2  0  0  0  0
 14 16  1  0  0  0  0
 16 27  1  0  0  0  0
 16 17  1  0  0  0  0
 17 18  2  0  0  0  0
 17 19  1  0  0  0  0
 19 28  1  0  0  0  0
 19 29  1  0  0  0  0
 19 20  1  0  0  0  0
 20 30  1  0  0  0  0
 20 31  1  0  0  0  0
M  ZZC   1 n1
M  ZZC   2 c1
M  ZZC   3 c2
M  ZZC   4 c3
M  ZZC   5 o1
M  ZZC   6 n2
M  ZZC   7 c4
M  ZZC   8 o2
M  ZZC   9 c5
M  ZZC  10 c6
M  ZZC  11 c7
M  ZZC  12 c8
M  ZZC  13 c9
M  ZZC  14 c10
M  ZZC  15 o3
M  ZZC  16 n3
M  ZZC  17 c11
M  ZZC  18 o4
M  ZZC  19 c12
M  ZZC  20 c13
M  ZZC  21 h11
M  ZZC  22 h12
M  ZZC  23 h61
M  ZZC  24 h71
M  ZZC  25 h81
M  ZZC  26 h91
M  ZZC  27 h31
M  ZZC  28 h121
M  ZZC  29 h122
M  ZZC  30 h131
M  ZZC  31 h132
M  ZZM   1 40
M  ZZI   1 224
M  ZZM   2 37
M  ZZI   2 124
M  ZZM   3 37
M  ZZI   3 124
M  ZZM   4 3
M  ZZI   4 121
M  ZZM   5 7
M  ZZI   5 81
M  ZZM   6 10
M  ZZI   6 192
M  ZZM   7 3
M  ZZI   7 121
M  ZZM   8 7
M  ZZI   8 81
M  ZZM   9 37
M  ZZI   9 124
M  ZZM  10 37
M  ZZI  10 125
M  ZZM  11 37
M  ZZI  11 125
M  ZZM  12 37
M  ZZI  12 125
M  ZZM  13 1
M  ZZI  13 113
M  ZZM  14 3
M  ZZI  14 121
M  ZZM  15 7
M  ZZI  15 81
M  ZZM  16 10
M  ZZI  16 191
M  ZZM  17 3
M  ZZI  17 121
M  ZZM  18 7
M  ZZI  18 81
M  ZZM  19 1
M  ZZI  19 112
M  ZZM  20 1
M  ZZI  20 112
M  ZZM  21 28
M  ZZI  21 11
M  ZZM  22 28
M  ZZI  22 11
M  ZZM  23 5
M  ZZI  23 1
M  ZZM  24 5
M  ZZI  24 1
M  ZZM  25 5
M  ZZI  25 1
M  ZZM  26 5
M  ZZI  26 1
M  ZZM  27 28
M  ZZI  27 11
M  ZZM  28 5
M  ZZI  28 1
M  ZZM  29 5
M  ZZI  29 1
M  ZZM  30 5
M  ZZI  30 1
M  ZZM  31 5
M  ZZI  31 1
M  END
> <IX>
1

> <NAME>
Cereblon_6CB5_1.pdb

> <Score>
-18.35731

> <Natom>
31

> <Nflex>
1

> <Hbond>
-3.627683

> <Hphob>
-3.543185

> <VwInt>
-24.328511

> <Dsolv>
15.037411

> <SolEl>
7.012291

> <Eintl>
1.695006

> <RecConf>
ND

> <projPath>
Cereblon_maps/

> <NAME_>
Cereblon_6CB5_1.pdb

$$$$
