Cereblon_2GQG_33.pdb
  MOLSOFT 04032206203D

 31 33  0  0  1  0  0  0  0  0999 V2000
   78.8118   41.6761   43.8200 N   0  0  0  0  0  0  0  0  0  0  0  0
   78.9064   42.4208   42.6338 C   0  0  0  0  0  0  0  0  0  0  0  0
   78.1004   42.1566   41.5393 C   0  0  0  0  0  0  0  0  0  0  0  0
   77.1796   41.0461   41.3311 C   0  0  0  0  0  0  0  0  0  0  0  0
   76.9988   40.1627   42.1560 O   0  0  0  0  0  0  0  0  0  0  0  0
   76.6457   41.2110   40.0685 N   0  0  0  0  0  0  0  0  0  0  0  0
   77.1670   42.3321   39.4555 C   0  0  0  0  0  0  0  0  0  0  0  0
   76.9542   42.7556   38.3268 O   0  0  0  0  0  0  0  0  0  0  0  0
   78.0982   42.9267   40.4158 C   0  0  0  0  0  0  0  0  0  0  0  0
   78.9096   44.0362   40.2960 C   0  0  0  0  0  0  0  0  0  0  0  0
   79.7247   44.3356   41.3815 C   0  0  0  0  0  0  0  0  0  0  0  0
   79.7109   43.5523   42.5372 C   0  0  0  0  0  0  0  0  0  0  0  0
   75.6255   40.3756   39.4311 C   0  0  2  0  0  0  0  0  0  0  0  0
   74.2544   40.9549   39.7355 C   0  0  0  0  0  0  0  0  0  0  0  0
   74.0847   42.1352   39.9925 O   0  0  0  0  0  0  0  0  0  0  0  0
   73.1931   40.0905   39.6212 N   0  0  0  0  0  0  0  0  0  0  0  0
   73.2168   38.7531   39.3074 C   0  0  0  0  0  0  0  0  0  0  0  0
   72.1913   38.1013   39.1967 O   0  0  0  0  0  0  0  0  0  0  0  0
   74.5796   38.1529   39.0556 C   0  0  0  0  0  0  0  0  0  0  0  0
   75.6575   38.9009   39.8199 C   0  0  0  0  0  0  0  0  0  0  0  0
   79.5520   41.7591   44.5134 H   0  0  0  0  0  0  0  0  0  0  0  0
   78.3222   40.7810   43.7764 H   0  0  0  0  0  0  0  0  0  0  0  0
   78.9030   44.6449   39.3995 H   0  0  0  0  0  0  0  0  0  0  0  0
   80.3727   45.2039   41.3377 H   0  0  0  0  0  0  0  0  0  0  0  0
   80.3421   43.8341   43.3745 H   0  0  0  0  0  0  0  0  0  0  0  0
   75.7606   40.4758   38.3529 H   0  0  0  0  0  0  0  0  0  0  0  0
   72.2780   40.4929   39.7815 H   0  0  0  0  0  0  0  0  0  0  0  0
   74.5625   37.1051   39.3722 H   0  0  0  0  0  0  0  0  0  0  0  0
   74.7681   38.1779   37.9778 H   0  0  0  0  0  0  0  0  0  0  0  0
   75.4722   38.7731   40.8905 H   0  0  0  0  0  0  0  0  0  0  0  0
   76.6419   38.4689   39.6127 H   0  0  0  0  0  0  0  0  0  0  0  0
  1  2  1  0  0  0  0
  1 21  1  0  0  0  0
  1 22  1  0  0  0  0
  2  3  1  0  0  0  0
  2 12  2  0  0  0  0
  3  9  2  0  0  0  0
  3  4  1  0  0  0  0
  4  5  2  0  0  0  0
  4  6  1  0  0  0  0
  6  7  1  0  0  0  0
 13  6  1  0  0  0  0
  7  8  2  0  0  0  0
  7  9  1  0  0  0  0
  9 10  1  0  0  0  0
 10 23  1  0  0  0  0
 10 11  2  0  0  0  0
 11 12  1  0  0  0  0
 11 24  1  0  0  0  0
 12 25  1  0  0  0  0
 13 26  1  0  0  0  0
 13 14  1  0  0  0  0
 13 20  1  0  0  0  0
 14 15  2  0  0  0  0
 14 16  1  0  0  0  0
 16 27  1  0  0  0  0
 16 17  1  0  0  0  0
 17 18  2  0  0  0  0
 17 19  1  0  0  0  0
 19 28  1  0  0  0  0
 19 29  1  0  0  0  0
 19 20  1  0  0  0  0
 20 30  1  0  0  0  0
 20 31  1  0  0  0  0
M  ZZC   1 n1
M  ZZC   2 c1
M  ZZC   3 c2
M  ZZC   4 c3
M  ZZC   5 o1
M  ZZC   6 n2
M  ZZC   7 c4
M  ZZC   8 o2
M  ZZC   9 c5
M  ZZC  10 c6
M  ZZC  11 c7
M  ZZC  12 c8
M  ZZC  13 c9
M  ZZC  14 c10
M  ZZC  15 o3
M  ZZC  16 n3
M  ZZC  17 c11
M  ZZC  18 o4
M  ZZC  19 c12
M  ZZC  20 c13
M  ZZC  21 h11
M  ZZC  22 h12
M  ZZC  23 h61
M  ZZC  24 h71
M  ZZC  25 h81
M  ZZC  26 h91
M  ZZC  27 h31
M  ZZC  28 h121
M  ZZC  29 h122
M  ZZC  30 h131
M  ZZC  31 h132
M  ZZM   1 40
M  ZZI   1 224
M  ZZM   2 37
M  ZZI   2 124
M  ZZM   3 37
M  ZZI   3 124
M  ZZM   4 3
M  ZZI   4 121
M  ZZM   5 7
M  ZZI   5 81
M  ZZM   6 10
M  ZZI   6 192
M  ZZM   7 3
M  ZZI   7 121
M  ZZM   8 7
M  ZZI   8 81
M  ZZM   9 37
M  ZZI   9 124
M  ZZM  10 37
M  ZZI  10 125
M  ZZM  11 37
M  ZZI  11 125
M  ZZM  12 37
M  ZZI  12 125
M  ZZM  13 1
M  ZZI  13 113
M  ZZM  14 3
M  ZZI  14 121
M  ZZM  15 7
M  ZZI  15 81
M  ZZM  16 10
M  ZZI  16 191
M  ZZM  17 3
M  ZZI  17 121
M  ZZM  18 7
M  ZZI  18 81
M  ZZM  19 1
M  ZZI  19 112
M  ZZM  20 1
M  ZZI  20 112
M  ZZM  21 28
M  ZZI  21 11
M  ZZM  22 28
M  ZZI  22 11
M  ZZM  23 5
M  ZZI  23 1
M  ZZM  24 5
M  ZZI  24 1
M  ZZM  25 5
M  ZZI  25 1
M  ZZM  26 5
M  ZZI  26 1
M  ZZM  27 28
M  ZZI  27 11
M  ZZM  28 5
M  ZZI  28 1
M  ZZM  29 5
M  ZZI  29 1
M  ZZM  30 5
M  ZZI  30 1
M  ZZM  31 5
M  ZZI  31 1
M  END
> <IX>
1

> <NAME>
Cereblon_2GQG_33.pdb

> <Score>
-18.424103

> <Natom>
31

> <Nflex>
1

> <Hbond>
-3.70234

> <Hphob>
-3.546009

> <VwInt>
-24.21871

> <Dsolv>
15.192343

> <SolEl>
6.857605

> <Eintl>
1.695128

> <RecConf>
ND

> <projPath>
Cereblon_maps/

> <NAME_>
Cereblon_2GQG_33.pdb

$$$$
