Cereblon_6YBL_3.pdb
  MOLSOFT 04032206303D

 29 31  0  0  1  0  0  0  0  0999 V2000
   79.0041   42.4899   42.6725 C   0  0  0  0  0  0  0  0  0  0  0  0
   78.1854   42.1952   41.5966 C   0  0  0  0  0  0  0  0  0  0  0  0
   77.2676   41.0773   41.4112 C   0  0  0  0  0  0  0  0  0  0  0  0
   77.0865   40.2162   42.2583 O   0  0  0  0  0  0  0  0  0  0  0  0
   76.7270   41.2199   40.1469 N   0  0  0  0  0  0  0  0  0  0  0  0
   77.2237   42.3467   39.5234 C   0  0  0  0  0  0  0  0  0  0  0  0
   76.9886   42.7660   38.3975 O   0  0  0  0  0  0  0  0  0  0  0  0
   78.1585   42.9581   40.4679 C   0  0  0  0  0  0  0  0  0  0  0  0
   78.9582   44.0738   40.3257 C   0  0  0  0  0  0  0  0  0  0  0  0
   79.7999   44.3836   41.3888 C   0  0  0  0  0  0  0  0  0  0  0  0
   79.8234   43.6053   42.5462 C   0  0  0  0  0  0  0  0  0  0  0  0
   75.7181   40.3650   39.5140 C   0  0  2  0  0  0  0  0  0  0  0  0
   74.3384   40.9327   39.8044 C   0  0  0  0  0  0  0  0  0  0  0  0
   74.1486   42.1181   40.0204 O   0  0  0  0  0  0  0  0  0  0  0  0
   73.2883   40.0502   39.7286 N   0  0  0  0  0  0  0  0  0  0  0  0
   73.3273   38.7052   39.4533 C   0  0  0  0  0  0  0  0  0  0  0  0
   72.3119   38.0316   39.3925 O   0  0  0  0  0  0  0  0  0  0  0  0
   74.6922   38.1249   39.1758 C   0  0  0  0  0  0  0  0  0  0  0  0
   75.7739   38.8941   39.9138 C   0  0  0  0  0  0  0  0  0  0  0  0
   79.0155   41.8744   43.5679 H   0  0  0  0  0  0  0  0  0  0  0  0
   78.9287   44.6743   39.4256 H   0  0  0  0  0  0  0  0  0  0  0  0
   80.4486   45.2486   41.3202 H   0  0  0  0  0  0  0  0  0  0  0  0
   80.4903   43.8728   43.3605 H   0  0  0  0  0  0  0  0  0  0  0  0
   75.8563   40.4543   38.4346 H   0  0  0  0  0  0  0  0  0  0  0  0
   72.3697   40.4434   39.8918 H   0  0  0  0  0  0  0  0  0  0  0  0
   74.6988   37.0790   39.4985 H   0  0  0  0  0  0  0  0  0  0  0  0
   74.8536   38.1481   38.0937 H   0  0  0  0  0  0  0  0  0  0  0  0
   76.7596   38.4735   39.6899 H   0  0  0  0  0  0  0  0  0  0  0  0
   75.6110   38.7731   40.9883 H   0  0  0  0  0  0  0  0  0  0  0  0
  1 20  1  0  0  0  0
  1  2  1  0  0  0  0
  1 11  2  0  0  0  0
  2  3  1  0  0  0  0
  2  8  2  0  0  0  0
  3  4  2  0  0  0  0
  3  5  1  0  0  0  0
  5  6  1  0  0  0  0
 12  5  1  0  0  0  0
  6  7  2  0  0  0  0
  6  8  1  0  0  0  0
  8  9  1  0  0  0  0
  9 21  1  0  0  0  0
  9 10  2  0  0  0  0
 10 22  1  0  0  0  0
 10 11  1  0  0  0  0
 11 23  1  0  0  0  0
 12 24  1  0  0  0  0
 12 13  1  0  0  0  0
 12 19  1  0  0  0  0
 13 14  2  0  0  0  0
 13 15  1  0  0  0  0
 15 25  1  0  0  0  0
 15 16  1  0  0  0  0
 16 17  2  0  0  0  0
 16 18  1  0  0  0  0
 18 26  1  0  0  0  0
 18 27  1  0  0  0  0
 18 19  1  0  0  0  0
 19 28  1  0  0  0  0
 19 29  1  0  0  0  0
M  ZZC   1 c1
M  ZZC   2 c2
M  ZZC   3 c3
M  ZZC   4 o1
M  ZZC   5 n1
M  ZZC   6 c4
M  ZZC   7 o2
M  ZZC   8 c5
M  ZZC   9 c6
M  ZZC  10 c7
M  ZZC  11 c8
M  ZZC  12 c9
M  ZZC  13 c10
M  ZZC  14 o3
M  ZZC  15 n2
M  ZZC  16 c11
M  ZZC  17 o4
M  ZZC  18 c12
M  ZZC  19 c13
M  ZZC  20 h11
M  ZZC  21 h61
M  ZZC  22 h71
M  ZZC  23 h81
M  ZZC  24 h91
M  ZZC  25 h21
M  ZZC  26 h121
M  ZZC  27 h122
M  ZZC  28 h131
M  ZZC  29 h132
M  ZZM   1 37
M  ZZI   1 125
M  ZZM   2 37
M  ZZI   2 124
M  ZZM   3 3
M  ZZI   3 121
M  ZZM   4 7
M  ZZI   4 81
M  ZZM   5 10
M  ZZI   5 192
M  ZZM   6 3
M  ZZI   6 121
M  ZZM   7 7
M  ZZI   7 81
M  ZZM   8 37
M  ZZI   8 124
M  ZZM   9 37
M  ZZI   9 125
M  ZZM  10 37
M  ZZI  10 125
M  ZZM  11 37
M  ZZI  11 125
M  ZZM  12 1
M  ZZI  12 113
M  ZZM  13 3
M  ZZI  13 121
M  ZZM  14 7
M  ZZI  14 81
M  ZZM  15 10
M  ZZI  15 191
M  ZZM  16 3
M  ZZI  16 121
M  ZZM  17 7
M  ZZI  17 81
M  ZZM  18 1
M  ZZI  18 112
M  ZZM  19 1
M  ZZI  19 112
M  ZZM  20 5
M  ZZI  20 1
M  ZZM  21 5
M  ZZI  21 1
M  ZZM  22 5
M  ZZI  22 1
M  ZZM  23 5
M  ZZI  23 1
M  ZZM  24 5
M  ZZI  24 1
M  ZZM  25 28
M  ZZI  25 11
M  ZZM  26 5
M  ZZI  26 1
M  ZZM  27 5
M  ZZI  27 1
M  ZZM  28 5
M  ZZI  28 1
M  ZZM  29 5
M  ZZI  29 1
M  END
> <IX>
1

> <NAME>
Cereblon_6YBL_3.pdb

> <Score>
-19.272948

> <Natom>
29

> <Nflex>
1

> <Hbond>
-3.364057

> <Hphob>
-3.554489

> <VwInt>
-22.692517

> <Dsolv>
12.007695

> <SolEl>
5.811434

> <Eintl>
1.451372

> <RecConf>
ND

> <projPath>
Cereblon_maps/

> <NAME_>
Cereblon_6YBL_3.pdb

$$$$
