Cereblon_3MXF_32.pdb
  MOLSOFT 04032206223D

 30 32  0  0  1  0  0  0  0  0999 V2000
   75.7115   37.9224   39.7634 C   0  0  0  0  0  0  0  0  0  0  0  0
   75.0091   39.0164   39.2831 C   0  0  0  0  0  0  0  0  0  0  0  0
   75.3155   40.2712   39.7288 C   0  0  0  0  0  0  0  0  0  0  0  0
   74.4228   41.2237   39.0668 C   0  0  0  0  0  0  0  0  0  0  0  0
   74.4194   42.4197   39.3146 O   0  0  0  0  0  0  0  0  0  0  0  0
   73.6486   40.4955   38.1769 N   0  0  0  0  0  0  0  0  0  0  0  0
   72.6137   41.0089   37.2645 C   0  0  1  0  0  0  0  0  0  0  0  0
   71.2913   41.2418   37.9947 C   0  0  0  0  0  0  0  0  0  0  0  0
   70.9222   40.5699   38.9470 O   0  0  0  0  0  0  0  0  0  0  0  0
   70.4667   42.2036   37.4568 N   0  0  0  0  0  0  0  0  0  0  0  0
   70.6795   43.0215   36.3792 C   0  0  0  0  0  0  0  0  0  0  0  0
   69.8819   43.8979   36.0818 O   0  0  0  0  0  0  0  0  0  0  0  0
   71.9299   42.7385   35.5876 C   0  0  0  0  0  0  0  0  0  0  0  0
   73.0474   42.2620   36.5007 C   0  0  0  0  0  0  0  0  0  0  0  0
   73.8985   39.0688   38.2953 C   0  0  0  0  0  0  0  0  0  0  0  0
   76.3247   40.5277   40.6395 C   0  0  0  0  0  0  0  0  0  0  0  0
   77.0315   39.4361   41.1217 C   0  0  0  0  0  0  0  0  0  0  0  0
   76.7260   38.1493   40.6866 C   0  0  0  0  0  0  0  0  0  0  0  0
   75.4892   36.9153   39.4247 H   0  0  0  0  0  0  0  0  0  0  0  0
   72.4209   40.2190   36.5291 H   0  0  0  0  0  0  0  0  0  0  0  0
   69.5968   42.3646   37.9447 H   0  0  0  0  0  0  0  0  0  0  0  0
   71.6959   41.9913   34.8217 H   0  0  0  0  0  0  0  0  0  0  0  0
   72.2304   43.6599   35.0846 H   0  0  0  0  0  0  0  0  0  0  0  0
   73.9462   42.0526   35.9119 H   0  0  0  0  0  0  0  0  0  0  0  0
   73.3078   43.0717   37.1884 H   0  0  0  0  0  0  0  0  0  0  0  0
   74.1901   38.6589   37.3226 H   0  0  0  0  0  0  0  0  0  0  0  0
   72.9994   38.5696   38.6723 H   0  0  0  0  0  0  0  0  0  0  0  0
   76.5646   41.5375   40.9568 H   0  0  0  0  0  0  0  0  0  0  0  0
   77.8318   39.5893   41.8394 H   0  0  0  0  0  0  0  0  0  0  0  0
   77.2951   37.3092   41.0719 H   0  0  0  0  0  0  0  0  0  0  0  0
  1 19  1  0  0  0  0
  1 18  2  0  0  0  0
  1  2  1  0  0  0  0
  2  3  2  0  0  0  0
  2 15  1  0  0  0  0
  3 16  1  0  0  0  0
  3  4  1  0  0  0  0
  4  6  1  0  0  0  0
  4  5  2  0  0  0  0
  6 15  1  0  0  0  0
  7  6  1  0  0  0  0
  7 20  1  0  0  0  0
  7  8  1  0  0  0  0
  7 14  1  0  0  0  0
  8  9  2  0  0  0  0
  8 10  1  0  0  0  0
 10 21  1  0  0  0  0
 10 11  1  0  0  0  0
 11 12  2  0  0  0  0
 11 13  1  0  0  0  0
 13 22  1  0  0  0  0
 13 23  1  0  0  0  0
 13 14  1  0  0  0  0
 14 24  1  0  0  0  0
 14 25  1  0  0  0  0
 15 26  1  0  0  0  0
 15 27  1  0  0  0  0
 16 17  2  0  0  0  0
 16 28  1  0  0  0  0
 17 18  1  0  0  0  0
 17 29  1  0  0  0  0
 18 30  1  0  0  0  0
M  ZZC   1 c1
M  ZZC   2 c2
M  ZZC   3 c3
M  ZZC   4 c4
M  ZZC   5 o1
M  ZZC   6 n1
M  ZZC   7 c5
M  ZZC   8 c6
M  ZZC   9 o2
M  ZZC  10 n2
M  ZZC  11 c7
M  ZZC  12 o3
M  ZZC  13 c8
M  ZZC  14 c9
M  ZZC  15 c10
M  ZZC  16 c11
M  ZZC  17 c12
M  ZZC  18 c13
M  ZZC  19 h11
M  ZZC  20 h51
M  ZZC  21 h21
M  ZZC  22 h81
M  ZZC  23 h82
M  ZZC  24 h91
M  ZZC  25 h92
M  ZZC  26 h101
M  ZZC  27 h102
M  ZZC  28 h111
M  ZZC  29 h121
M  ZZC  30 h131
M  ZZM   1 37
M  ZZI   1 125
M  ZZM   2 37
M  ZZI   2 124
M  ZZM   3 37
M  ZZI   3 124
M  ZZM   4 3
M  ZZI   4 121
M  ZZM   5 7
M  ZZI   5 81
M  ZZM   6 10
M  ZZI   6 192
M  ZZM   7 1
M  ZZI   7 113
M  ZZM   8 3
M  ZZI   8 121
M  ZZM   9 7
M  ZZI   9 81
M  ZZM  10 10
M  ZZI  10 191
M  ZZM  11 3
M  ZZI  11 121
M  ZZM  12 7
M  ZZI  12 81
M  ZZM  13 1
M  ZZI  13 112
M  ZZM  14 1
M  ZZI  14 112
M  ZZM  15 1
M  ZZI  15 112
M  ZZM  16 37
M  ZZI  16 125
M  ZZM  17 37
M  ZZI  17 125
M  ZZM  18 37
M  ZZI  18 125
M  ZZM  19 5
M  ZZI  19 1
M  ZZM  20 5
M  ZZI  20 1
M  ZZM  21 28
M  ZZI  21 11
M  ZZM  22 5
M  ZZI  22 1
M  ZZM  23 5
M  ZZI  23 1
M  ZZM  24 5
M  ZZI  24 1
M  ZZM  25 5
M  ZZI  25 1
M  ZZM  26 5
M  ZZI  26 1
M  ZZM  27 5
M  ZZI  27 1
M  ZZM  28 5
M  ZZI  28 1
M  ZZM  29 5
M  ZZI  29 1
M  ZZM  30 5
M  ZZI  30 1
M  END
> <IX>
1

> <NAME>
Cereblon_3MXF_32.pdb

> <Score>
-20.591294

> <Natom>
30

> <Nflex>
1

> <Hbond>
-4.621211

> <Hphob>
-3.589475

> <VwInt>
-21.971804

> <Dsolv>
13.321284

> <SolEl>
5.83633

> <Eintl>
1.723633

> <RecConf>
ND

> <projPath>
Cereblon_maps/

> <NAME_>
Cereblon_3MXF_32.pdb

$$$$
