Cereblon_3MXF_38.pdb
  MOLSOFT 04032206223D

 29 31  0  0  1  0  0  0  0  0999 V2000
   76.3137   40.4905   40.6550 C   0  0  0  0  0  0  0  0  0  0  0  0
   75.3243   40.2826   39.7112 C   0  0  0  0  0  0  0  0  0  0  0  0
   74.4526   41.2470   39.0468 C   0  0  0  0  0  0  0  0  0  0  0  0
   74.4448   42.4324   39.3408 O   0  0  0  0  0  0  0  0  0  0  0  0
   73.6907   40.5319   38.1401 N   0  0  0  0  0  0  0  0  0  0  0  0
   73.9568   39.1812   38.2474 C   0  0  0  0  0  0  0  0  0  0  0  0
   73.4508   38.2398   37.6539 O   0  0  0  0  0  0  0  0  0  0  0  0
   75.0144   39.0423   39.2470 C   0  0  0  0  0  0  0  0  0  0  0  0
   75.6613   37.9079   39.7023 C   0  0  0  0  0  0  0  0  0  0  0  0
   76.6584   38.0920   40.6541 C   0  0  0  0  0  0  0  0  0  0  0  0
   76.9806   39.3655   41.1239 C   0  0  0  0  0  0  0  0  0  0  0  0
   72.6600   41.0698   37.2394 C   0  0  1  0  0  0  0  0  0  0  0  0
   71.3528   41.2755   37.9980 C   0  0  0  0  0  0  0  0  0  0  0  0
   71.0399   40.6223   38.9826 O   0  0  0  0  0  0  0  0  0  0  0  0
   70.4830   42.1952   37.4579 N   0  0  0  0  0  0  0  0  0  0  0  0
   70.6742   43.0420   36.3978 C   0  0  0  0  0  0  0  0  0  0  0  0
   69.8508   43.8979   36.1117 O   0  0  0  0  0  0  0  0  0  0  0  0
   71.9450   42.8291   35.6145 C   0  0  0  0  0  0  0  0  0  0  0  0
   73.0731   42.3489   36.5140 C   0  0  0  0  0  0  0  0  0  0  0  0
   76.5674   41.4845   41.0098 H   0  0  0  0  0  0  0  0  0  0  0  0
   75.4096   36.9198   39.3283 H   0  0  0  0  0  0  0  0  0  0  0  0
   77.1975   37.2309   41.0365 H   0  0  0  0  0  0  0  0  0  0  0  0
   77.7648   39.4813   41.8663 H   0  0  0  0  0  0  0  0  0  0  0  0
   72.4486   40.2979   36.4902 H   0  0  0  0  0  0  0  0  0  0  0  0
   69.6132   42.3262   37.9530 H   0  0  0  0  0  0  0  0  0  0  0  0
   71.7427   42.1103   34.8133 H   0  0  0  0  0  0  0  0  0  0  0  0
   72.2215   43.7809   35.1569 H   0  0  0  0  0  0  0  0  0  0  0  0
   73.9753   42.1727   35.9195 H   0  0  0  0  0  0  0  0  0  0  0  0
   73.3194   43.1427   37.2246 H   0  0  0  0  0  0  0  0  0  0  0  0
  1 20  1  0  0  0  0
  1  2  1  0  0  0  0
  1 11  2  0  0  0  0
  2  3  1  0  0  0  0
  2  8  2  0  0  0  0
  3  4  2  0  0  0  0
  3  5  1  0  0  0  0
  5  6  1  0  0  0  0
 12  5  1  0  0  0  0
  6  7  2  0  0  0  0
  6  8  1  0  0  0  0
  8  9  1  0  0  0  0
  9 21  1  0  0  0  0
  9 10  2  0  0  0  0
 10 22  1  0  0  0  0
 10 11  1  0  0  0  0
 11 23  1  0  0  0  0
 12 24  1  0  0  0  0
 12 13  1  0  0  0  0
 12 19  1  0  0  0  0
 13 14  2  0  0  0  0
 13 15  1  0  0  0  0
 15 25  1  0  0  0  0
 15 16  1  0  0  0  0
 16 17  2  0  0  0  0
 16 18  1  0  0  0  0
 18 26  1  0  0  0  0
 18 27  1  0  0  0  0
 18 19  1  0  0  0  0
 19 28  1  0  0  0  0
 19 29  1  0  0  0  0
M  ZZC   1 c1
M  ZZC   2 c2
M  ZZC   3 c3
M  ZZC   4 o1
M  ZZC   5 n1
M  ZZC   6 c4
M  ZZC   7 o2
M  ZZC   8 c5
M  ZZC   9 c6
M  ZZC  10 c7
M  ZZC  11 c8
M  ZZC  12 c9
M  ZZC  13 c10
M  ZZC  14 o3
M  ZZC  15 n2
M  ZZC  16 c11
M  ZZC  17 o4
M  ZZC  18 c12
M  ZZC  19 c13
M  ZZC  20 h11
M  ZZC  21 h61
M  ZZC  22 h71
M  ZZC  23 h81
M  ZZC  24 h91
M  ZZC  25 h21
M  ZZC  26 h121
M  ZZC  27 h122
M  ZZC  28 h131
M  ZZC  29 h132
M  ZZM   1 37
M  ZZI   1 125
M  ZZM   2 37
M  ZZI   2 124
M  ZZM   3 3
M  ZZI   3 121
M  ZZM   4 7
M  ZZI   4 81
M  ZZM   5 10
M  ZZI   5 192
M  ZZM   6 3
M  ZZI   6 121
M  ZZM   7 7
M  ZZI   7 81
M  ZZM   8 37
M  ZZI   8 124
M  ZZM   9 37
M  ZZI   9 125
M  ZZM  10 37
M  ZZI  10 125
M  ZZM  11 37
M  ZZI  11 125
M  ZZM  12 1
M  ZZI  12 113
M  ZZM  13 3
M  ZZI  13 121
M  ZZM  14 7
M  ZZI  14 81
M  ZZM  15 10
M  ZZI  15 191
M  ZZM  16 3
M  ZZI  16 121
M  ZZM  17 7
M  ZZI  17 81
M  ZZM  18 1
M  ZZI  18 112
M  ZZM  19 1
M  ZZI  19 112
M  ZZM  20 5
M  ZZI  20 1
M  ZZM  21 5
M  ZZI  21 1
M  ZZM  22 5
M  ZZI  22 1
M  ZZM  23 5
M  ZZI  23 1
M  ZZM  24 5
M  ZZI  24 1
M  ZZM  25 28
M  ZZI  25 11
M  ZZM  26 5
M  ZZI  26 1
M  ZZM  27 5
M  ZZI  27 1
M  ZZM  28 5
M  ZZI  28 1
M  ZZM  29 5
M  ZZI  29 1
M  END
> <IX>
1

> <NAME>
Cereblon_3MXF_38.pdb

> <Score>
-20.685777

> <Natom>
29

> <Nflex>
1

> <Hbond>
-4.57558

> <Hphob>
-3.48516

> <VwInt>
-22.350815

> <Dsolv>
13.41897

> <SolEl>
6.925656

> <Eintl>
0.568587

> <RecConf>
ND

> <projPath>
Cereblon_maps/

> <NAME_>
Cereblon_3MXF_38.pdb

$$$$
