Cereblon_2VTI_22.pdb
  MOLSOFT 04032206203D

 31 33  0  0  1  0  0  0  0  0999 V2000
   80.1020   44.1854   41.8351 N   0  0  0  0  0  0  0  0  0  0  0  0
   79.0933   43.2520   41.5597 C   0  0  0  0  0  0  0  0  0  0  0  0
   78.4125   43.3089   40.3475 C   0  0  0  0  0  0  0  0  0  0  0  0
   77.4487   42.3374   40.1077 C   0  0  0  0  0  0  0  0  0  0  0  0
   76.5291   42.1822   38.9812 C   0  0  0  0  0  0  0  0  0  0  0  0
   76.5820   42.8420   37.9531 O   0  0  0  0  0  0  0  0  0  0  0  0
   75.6849   41.1415   39.3065 N   0  0  0  0  0  0  0  0  0  0  0  0
   76.1395   40.4933   40.4382 C   0  0  0  0  0  0  0  0  0  0  0  0
   75.7660   39.4449   40.9392 O   0  0  0  0  0  0  0  0  0  0  0  0
   77.1929   41.3442   40.9984 C   0  0  0  0  0  0  0  0  0  0  0  0
   77.8612   41.2504   42.2043 C   0  0  0  0  0  0  0  0  0  0  0  0
   78.8190   42.2240   42.4661 C   0  0  0  0  0  0  0  0  0  0  0  0
   74.4721   40.8207   38.5405 C   0  0  2  0  0  0  0  0  0  0  0  0
   73.3510   41.5232   39.2820 C   0  0  0  0  0  0  0  0  0  0  0  0
   73.5649   42.4078   40.0915 O   0  0  0  0  0  0  0  0  0  0  0  0
   72.0751   41.1585   38.9358 N   0  0  0  0  0  0  0  0  0  0  0  0
   71.6913   40.1359   38.1081 C   0  0  0  0  0  0  0  0  0  0  0  0
   70.5211   39.9680   37.7973 O   0  0  0  0  0  0  0  0  0  0  0  0
   72.8069   39.2546   37.5851 C   0  0  0  0  0  0  0  0  0  0  0  0
   74.0695   39.3564   38.4321 C   0  0  0  0  0  0  0  0  0  0  0  0
   80.3864   44.3269   42.8029 H   0  0  0  0  0  0  0  0  0  0  0  0
   80.2785   44.9326   41.1680 H   0  0  0  0  0  0  0  0  0  0  0  0
   78.6303   44.0761   39.6123 H   0  0  0  0  0  0  0  0  0  0  0  0
   77.6479   40.4568   42.9148 H   0  0  0  0  0  0  0  0  0  0  0  0
   79.3642   42.1785   43.4037 H   0  0  0  0  0  0  0  0  0  0  0  0
   74.5379   41.2882   37.5513 H   0  0  0  0  0  0  0  0  0  0  0  0
   71.3357   41.7312   39.3242 H   0  0  0  0  0  0  0  0  0  0  0  0
   72.4523   38.2190   37.5773 H   0  0  0  0  0  0  0  0  0  0  0  0
   73.0115   39.5487   36.5499 H   0  0  0  0  0  0  0  0  0  0  0  0
   74.8718   38.7550   37.9978 H   0  0  0  0  0  0  0  0  0  0  0  0
   73.8607   38.9387   39.4225 H   0  0  0  0  0  0  0  0  0  0  0  0
  1  2  1  0  0  0  0
  1 21  1  0  0  0  0
  1 22  1  0  0  0  0
  2  3  1  0  0  0  0
  2 12  2  0  0  0  0
  3 23  1  0  0  0  0
  3  4  2  0  0  0  0
  4 10  1  0  0  0  0
  4  5  1  0  0  0  0
  5  6  2  0  0  0  0
  5  7  1  0  0  0  0
  7  8  1  0  0  0  0
 13  7  1  0  0  0  0
  8  9  2  0  0  0  0
  8 10  1  0  0  0  0
 10 11  2  0  0  0  0
 11 12  1  0  0  0  0
 11 24  1  0  0  0  0
 12 25  1  0  0  0  0
 13 26  1  0  0  0  0
 13 14  1  0  0  0  0
 13 20  1  0  0  0  0
 14 15  2  0  0  0  0
 14 16  1  0  0  0  0
 16 27  1  0  0  0  0
 16 17  1  0  0  0  0
 17 18  2  0  0  0  0
 17 19  1  0  0  0  0
 19 28  1  0  0  0  0
 19 29  1  0  0  0  0
 19 20  1  0  0  0  0
 20 30  1  0  0  0  0
 20 31  1  0  0  0  0
M  ZZC   1 n1
M  ZZC   2 c1
M  ZZC   3 c2
M  ZZC   4 c3
M  ZZC   5 c4
M  ZZC   6 o1
M  ZZC   7 n2
M  ZZC   8 c5
M  ZZC   9 o2
M  ZZC  10 c6
M  ZZC  11 c7
M  ZZC  12 c8
M  ZZC  13 c9
M  ZZC  14 c10
M  ZZC  15 o3
M  ZZC  16 n3
M  ZZC  17 c11
M  ZZC  18 o4
M  ZZC  19 c12
M  ZZC  20 c13
M  ZZC  21 h11
M  ZZC  22 h12
M  ZZC  23 h21
M  ZZC  24 h71
M  ZZC  25 h81
M  ZZC  26 h91
M  ZZC  27 h31
M  ZZC  28 h121
M  ZZC  29 h122
M  ZZC  30 h131
M  ZZC  31 h132
M  ZZM   1 40
M  ZZI   1 224
M  ZZM   2 37
M  ZZI   2 124
M  ZZM   3 37
M  ZZI   3 125
M  ZZM   4 37
M  ZZI   4 124
M  ZZM   5 3
M  ZZI   5 121
M  ZZM   6 7
M  ZZI   6 81
M  ZZM   7 10
M  ZZI   7 192
M  ZZM   8 3
M  ZZI   8 121
M  ZZM   9 7
M  ZZI   9 81
M  ZZM  10 37
M  ZZI  10 124
M  ZZM  11 37
M  ZZI  11 125
M  ZZM  12 37
M  ZZI  12 125
M  ZZM  13 1
M  ZZI  13 113
M  ZZM  14 3
M  ZZI  14 121
M  ZZM  15 7
M  ZZI  15 81
M  ZZM  16 10
M  ZZI  16 191
M  ZZM  17 3
M  ZZI  17 121
M  ZZM  18 7
M  ZZI  18 81
M  ZZM  19 1
M  ZZI  19 112
M  ZZM  20 1
M  ZZI  20 112
M  ZZM  21 28
M  ZZI  21 11
M  ZZM  22 28
M  ZZI  22 11
M  ZZM  23 5
M  ZZI  23 1
M  ZZM  24 5
M  ZZI  24 1
M  ZZM  25 5
M  ZZI  25 1
M  ZZM  26 5
M  ZZI  26 1
M  ZZM  27 28
M  ZZI  27 11
M  ZZM  28 5
M  ZZI  28 1
M  ZZM  29 5
M  ZZI  29 1
M  ZZM  30 5
M  ZZI  30 1
M  ZZM  31 5
M  ZZI  31 1
M  END
> <IX>
1

> <NAME>
Cereblon_2VTI_22.pdb

> <Score>
-13.899926

> <Natom>
31

> <Nflex>
1

> <Hbond>
-4.192333

> <Hphob>
-3.451114

> <VwInt>
-23.550871

> <Dsolv>
17.711123

> <SolEl>
8.367966

> <Eintl>
5.272656

> <RecConf>
ND

> <projPath>
Cereblon_maps/

> <NAME_>
Cereblon_2VTI_22.pdb

$$$$
