Cereblon_4QNQ_29.pdb
  MOLSOFT 04032206233D

 31 33  0  0  1  0  0  0  0  0999 V2000
   77.9934   40.6338   42.7176 N   0  0  0  0  0  0  0  0  0  0  0  0
   78.1426   41.6611   41.7706 C   0  0  0  0  0  0  0  0  0  0  0  0
   77.3011   41.7869   40.6742 C   0  0  0  0  0  0  0  0  0  0  0  0
   76.2288   40.9084   40.2137 C   0  0  0  0  0  0  0  0  0  0  0  0
   75.9832   39.8130   40.6993 O   0  0  0  0  0  0  0  0  0  0  0  0
   75.6116   41.5523   39.1573 N   0  0  0  0  0  0  0  0  0  0  0  0
   76.3441   42.6622   38.7871 C   0  0  0  0  0  0  0  0  0  0  0  0
   76.2450   43.3730   37.7983 O   0  0  0  0  0  0  0  0  0  0  0  0
   77.3817   42.8311   39.8042 C   0  0  0  0  0  0  0  0  0  0  0  0
   78.3240   43.8329   39.9477 C   0  0  0  0  0  0  0  0  0  0  0  0
   79.1734   43.7445   41.0434 C   0  0  0  0  0  0  0  0  0  0  0  0
   79.0657   42.6893   41.9515 C   0  0  0  0  0  0  0  0  0  0  0  0
   74.3646   41.0484   38.5537 C   0  0  1  0  0  0  0  0  0  0  0  0
   73.2248   41.3223   39.5254 C   0  0  0  0  0  0  0  0  0  0  0  0
   73.3991   41.6049   40.6983 O   0  0  0  0  0  0  0  0  0  0  0  0
   71.9563   41.1786   39.0231 N   0  0  0  0  0  0  0  0  0  0  0  0
   71.5822   40.9439   37.7256 C   0  0  0  0  0  0  0  0  0  0  0  0
   70.4210   40.6995   37.4360 O   0  0  0  0  0  0  0  0  0  0  0  0
   72.7011   40.9493   36.7044 C   0  0  0  0  0  0  0  0  0  0  0  0
   73.9394   41.6698   37.2230 C   0  0  0  0  0  0  0  0  0  0  0  0
   78.7740   40.4208   43.3372 H   0  0  0  0  0  0  0  0  0  0  0  0
   77.3613   39.8675   42.4824 H   0  0  0  0  0  0  0  0  0  0  0  0
   78.3863   44.6590   39.2478 H   0  0  0  0  0  0  0  0  0  0  0  0
   79.9152   44.5195   41.2093 H   0  0  0  0  0  0  0  0  0  0  0  0
   79.7207   42.6721   42.8170 H   0  0  0  0  0  0  0  0  0  0  0  0
   74.4590   39.9594   38.4677 H   0  0  0  0  0  0  0  0  0  0  0  0
   71.2035   41.2738   39.6923 H   0  0  0  0  0  0  0  0  0  0  0  0
   72.9366   39.9101   36.4518 H   0  0  0  0  0  0  0  0  0  0  0  0
   72.3408   41.4450   35.7971 H   0  0  0  0  0  0  0  0  0  0  0  0
   73.7103   42.7343   37.3519 H   0  0  0  0  0  0  0  0  0  0  0  0
   74.7359   41.6143   36.4797 H   0  0  0  0  0  0  0  0  0  0  0  0
  1  2  1  0  0  0  0
  1 21  1  0  0  0  0
  1 22  1  0  0  0  0
  2  3  1  0  0  0  0
  2 12  2  0  0  0  0
  3  9  2  0  0  0  0
  3  4  1  0  0  0  0
  4  5  2  0  0  0  0
  4  6  1  0  0  0  0
  6  7  1  0  0  0  0
 13  6  1  0  0  0  0
  7  8  2  0  0  0  0
  7  9  1  0  0  0  0
  9 10  1  0  0  0  0
 10 23  1  0  0  0  0
 10 11  2  0  0  0  0
 11 12  1  0  0  0  0
 11 24  1  0  0  0  0
 12 25  1  0  0  0  0
 13 26  1  0  0  0  0
 13 14  1  0  0  0  0
 13 20  1  0  0  0  0
 14 15  2  0  0  0  0
 14 16  1  0  0  0  0
 16 27  1  0  0  0  0
 16 17  1  0  0  0  0
 17 18  2  0  0  0  0
 17 19  1  0  0  0  0
 19 28  1  0  0  0  0
 19 29  1  0  0  0  0
 19 20  1  0  0  0  0
 20 30  1  0  0  0  0
 20 31  1  0  0  0  0
M  ZZC   1 n1
M  ZZC   2 c1
M  ZZC   3 c2
M  ZZC   4 c3
M  ZZC   5 o1
M  ZZC   6 n2
M  ZZC   7 c4
M  ZZC   8 o2
M  ZZC   9 c5
M  ZZC  10 c6
M  ZZC  11 c7
M  ZZC  12 c8
M  ZZC  13 c9
M  ZZC  14 c10
M  ZZC  15 o3
M  ZZC  16 n3
M  ZZC  17 c11
M  ZZC  18 o4
M  ZZC  19 c12
M  ZZC  20 c13
M  ZZC  21 h11
M  ZZC  22 h12
M  ZZC  23 h61
M  ZZC  24 h71
M  ZZC  25 h81
M  ZZC  26 h91
M  ZZC  27 h31
M  ZZC  28 h121
M  ZZC  29 h122
M  ZZC  30 h131
M  ZZC  31 h132
M  ZZM   1 40
M  ZZI   1 224
M  ZZM   2 37
M  ZZI   2 124
M  ZZM   3 37
M  ZZI   3 124
M  ZZM   4 3
M  ZZI   4 121
M  ZZM   5 7
M  ZZI   5 81
M  ZZM   6 10
M  ZZI   6 192
M  ZZM   7 3
M  ZZI   7 121
M  ZZM   8 7
M  ZZI   8 81
M  ZZM   9 37
M  ZZI   9 124
M  ZZM  10 37
M  ZZI  10 125
M  ZZM  11 37
M  ZZI  11 125
M  ZZM  12 37
M  ZZI  12 125
M  ZZM  13 1
M  ZZI  13 113
M  ZZM  14 3
M  ZZI  14 121
M  ZZM  15 7
M  ZZI  15 81
M  ZZM  16 10
M  ZZI  16 191
M  ZZM  17 3
M  ZZI  17 121
M  ZZM  18 7
M  ZZI  18 81
M  ZZM  19 1
M  ZZI  19 112
M  ZZM  20 1
M  ZZI  20 112
M  ZZM  21 28
M  ZZI  21 11
M  ZZM  22 28
M  ZZI  22 11
M  ZZM  23 5
M  ZZI  23 1
M  ZZM  24 5
M  ZZI  24 1
M  ZZM  25 5
M  ZZI  25 1
M  ZZM  26 5
M  ZZI  26 1
M  ZZM  27 28
M  ZZI  27 11
M  ZZM  28 5
M  ZZI  28 1
M  ZZM  29 5
M  ZZI  29 1
M  ZZM  30 5
M  ZZI  30 1
M  ZZM  31 5
M  ZZI  31 1
M  END
> <IX>
1

> <NAME>
Cereblon_4QNQ_29.pdb

> <Score>
-15.035216

> <Natom>
31

> <Nflex>
1

> <Hbond>
-2.894804

> <Hphob>
-3.704019

> <VwInt>
-27.04686

> <Dsolv>
17.214347

> <SolEl>
7.413365

> <Eintl>
5.68935

> <RecConf>
ND

> <projPath>
Cereblon_maps/

> <NAME_>
Cereblon_4QNQ_29.pdb

$$$$
