Cereblon_2HYY_6.pdb
  MOLSOFT 04032206203D

 29 31  0  0  1  0  0  0  0  0999 V2000
   78.9983   42.4837   42.6728 C   0  0  0  0  0  0  0  0  0  0  0  0
   78.1809   42.1910   41.5959 C   0  0  0  0  0  0  0  0  0  0  0  0
   77.2630   41.0737   41.4081 C   0  0  0  0  0  0  0  0  0  0  0  0
   77.0829   40.2114   42.2541 O   0  0  0  0  0  0  0  0  0  0  0  0
   76.7226   41.2187   40.1436 N   0  0  0  0  0  0  0  0  0  0  0  0
   77.2202   42.3461   39.5222 C   0  0  0  0  0  0  0  0  0  0  0  0
   76.9866   42.7648   38.3958 O   0  0  0  0  0  0  0  0  0  0  0  0
   78.1543   42.9560   40.4689 C   0  0  0  0  0  0  0  0  0  0  0  0
   78.9538   44.0723   40.3289 C   0  0  0  0  0  0  0  0  0  0  0  0
   79.7952   44.3800   41.3921 C   0  0  0  0  0  0  0  0  0  0  0  0
   79.8181   43.5991   42.5487 C   0  0  0  0  0  0  0  0  0  0  0  0
   75.7143   40.3650   39.5095 C   0  0  2  0  0  0  0  0  0  0  0  0
   74.3352   40.9357   39.7966 C   0  0  0  0  0  0  0  0  0  0  0  0
   74.1494   42.1217   40.0134 O   0  0  0  0  0  0  0  0  0  0  0  0
   73.2834   40.0561   39.7167 N   0  0  0  0  0  0  0  0  0  0  0  0
   73.3195   38.7111   39.4408 C   0  0  0  0  0  0  0  0  0  0  0  0
   72.3026   38.0403   39.3750 O   0  0  0  0  0  0  0  0  0  0  0  0
   74.6841   38.1267   39.1707 C   0  0  0  0  0  0  0  0  0  0  0  0
   75.7653   38.8946   39.9109 C   0  0  0  0  0  0  0  0  0  0  0  0
   79.0076   41.8672   43.5672 H   0  0  0  0  0  0  0  0  0  0  0  0
   78.9249   44.6736   39.4281 H   0  0  0  0  0  0  0  0  0  0  0  0
   80.4444   45.2452   41.3237 H   0  0  0  0  0  0  0  0  0  0  0  0
   80.4854   43.8650   43.3635 H   0  0  0  0  0  0  0  0  0  0  0  0
   75.8549   40.4533   38.4301 H   0  0  0  0  0  0  0  0  0  0  0  0
   72.3653   40.4516   39.8776 H   0  0  0  0  0  0  0  0  0  0  0  0
   74.6872   37.0815   39.4960 H   0  0  0  0  0  0  0  0  0  0  0  0
   74.8501   38.1477   38.0891 H   0  0  0  0  0  0  0  0  0  0  0  0
   75.5994   38.7750   40.9852 H   0  0  0  0  0  0  0  0  0  0  0  0
   76.7507   38.4713   39.6906 H   0  0  0  0  0  0  0  0  0  0  0  0
  1 20  1  0  0  0  0
  1  2  1  0  0  0  0
  1 11  2  0  0  0  0
  2  3  1  0  0  0  0
  2  8  2  0  0  0  0
  3  4  2  0  0  0  0
  3  5  1  0  0  0  0
  5  6  1  0  0  0  0
 12  5  1  0  0  0  0
  6  7  2  0  0  0  0
  6  8  1  0  0  0  0
  8  9  1  0  0  0  0
  9 21  1  0  0  0  0
  9 10  2  0  0  0  0
 10 22  1  0  0  0  0
 10 11  1  0  0  0  0
 11 23  1  0  0  0  0
 12 24  1  0  0  0  0
 12 13  1  0  0  0  0
 12 19  1  0  0  0  0
 13 14  2  0  0  0  0
 13 15  1  0  0  0  0
 15 25  1  0  0  0  0
 15 16  1  0  0  0  0
 16 17  2  0  0  0  0
 16 18  1  0  0  0  0
 18 26  1  0  0  0  0
 18 27  1  0  0  0  0
 18 19  1  0  0  0  0
 19 28  1  0  0  0  0
 19 29  1  0  0  0  0
M  ZZC   1 c1
M  ZZC   2 c2
M  ZZC   3 c3
M  ZZC   4 o1
M  ZZC   5 n1
M  ZZC   6 c4
M  ZZC   7 o2
M  ZZC   8 c5
M  ZZC   9 c6
M  ZZC  10 c7
M  ZZC  11 c8
M  ZZC  12 c9
M  ZZC  13 c10
M  ZZC  14 o3
M  ZZC  15 n2
M  ZZC  16 c11
M  ZZC  17 o4
M  ZZC  18 c12
M  ZZC  19 c13
M  ZZC  20 h11
M  ZZC  21 h61
M  ZZC  22 h71
M  ZZC  23 h81
M  ZZC  24 h91
M  ZZC  25 h21
M  ZZC  26 h121
M  ZZC  27 h122
M  ZZC  28 h131
M  ZZC  29 h132
M  ZZM   1 37
M  ZZI   1 125
M  ZZM   2 37
M  ZZI   2 124
M  ZZM   3 3
M  ZZI   3 121
M  ZZM   4 7
M  ZZI   4 81
M  ZZM   5 10
M  ZZI   5 192
M  ZZM   6 3
M  ZZI   6 121
M  ZZM   7 7
M  ZZI   7 81
M  ZZM   8 37
M  ZZI   8 124
M  ZZM   9 37
M  ZZI   9 125
M  ZZM  10 37
M  ZZI  10 125
M  ZZM  11 37
M  ZZI  11 125
M  ZZM  12 1
M  ZZI  12 113
M  ZZM  13 3
M  ZZI  13 121
M  ZZM  14 7
M  ZZI  14 81
M  ZZM  15 10
M  ZZI  15 191
M  ZZM  16 3
M  ZZI  16 121
M  ZZM  17 7
M  ZZI  17 81
M  ZZM  18 1
M  ZZI  18 112
M  ZZM  19 1
M  ZZI  19 112
M  ZZM  20 5
M  ZZI  20 1
M  ZZM  21 5
M  ZZI  21 1
M  ZZM  22 5
M  ZZI  22 1
M  ZZM  23 5
M  ZZI  23 1
M  ZZM  24 5
M  ZZI  24 1
M  ZZM  25 28
M  ZZI  25 11
M  ZZM  26 5
M  ZZI  26 1
M  ZZM  27 5
M  ZZI  27 1
M  ZZM  28 5
M  ZZI  28 1
M  ZZM  29 5
M  ZZI  29 1
M  END
> <IX>
1

> <NAME>
Cereblon_2HYY_6.pdb

> <Score>
-19.338486

> <Natom>
29

> <Nflex>
1

> <Hbond>
-3.368137

> <Hphob>
-3.551908

> <VwInt>
-22.714265

> <Dsolv>
12.135687

> <SolEl>
5.570174

> <Eintl>
1.498106

> <RecConf>
ND

> <projPath>
Cereblon_maps/

> <NAME_>
Cereblon_2HYY_6.pdb

$$$$
