Cereblon_5VBP_26.pdb
  MOLSOFT 04032206273D

 30 32  0  0  1  0  0  0  0  0999 V2000
   70.1996   40.2086   37.9264 O   0  0  0  0  0  0  0  0  0  0  0  0
   70.6405   41.0190   37.1257 C   0  0  0  0  0  0  0  0  0  0  0  0
   71.9667   40.8523   36.3862 C   0  0  2  0  0  0  0  0  0  0  0  0
   73.1120   41.1362   37.2707 N   0  0  0  0  0  0  0  0  0  0  0  0
   73.5561   40.2607   38.2459 C   0  0  0  0  0  0  0  0  0  0  0  0
   73.1111   39.1695   38.5702 O   0  0  0  0  0  0  0  0  0  0  0  0
   74.7300   40.8776   38.8679 C   0  0  0  0  0  0  0  0  0  0  0  0
   74.9786   42.0624   38.2353 C   0  0  0  0  0  0  0  0  0  0  0  0
   76.0586   42.8411   38.6171 C   0  0  0  0  0  0  0  0  0  0  0  0
   76.8448   42.3926   39.6699 C   0  0  0  0  0  0  0  0  0  0  0  0
   76.5748   41.1849   40.3084 C   0  0  0  0  0  0  0  0  0  0  0  0
   75.5083   40.3964   39.9039 C   0  0  0  0  0  0  0  0  0  0  0  0
   73.9708   42.3051   37.1716 C   0  0  0  0  0  0  0  0  0  0  0  0
   71.9210   41.6168   35.0599 C   0  0  0  0  0  0  0  0  0  0  0  0
   71.4644   43.0631   35.2045 C   0  0  0  0  0  0  0  0  0  0  0  0
   70.2093   43.1861   36.0241 C   0  0  0  0  0  0  0  0  0  0  0  0
   69.4763   44.1576   35.9781 O   0  0  0  0  0  0  0  0  0  0  0  0
   69.9353   42.1665   36.8840 N   0  0  0  0  0  0  0  0  0  0  0  0
   72.0339   39.7852   36.1460 H   0  0  0  0  0  0  0  0  0  0  0  0
   76.2933   43.7743   38.1147 H   0  0  0  0  0  0  0  0  0  0  0  0
   77.6919   42.9887   39.9956 H   0  0  0  0  0  0  0  0  0  0  0  0
   77.2132   40.8531   41.1215 H   0  0  0  0  0  0  0  0  0  0  0  0
   75.2958   39.4443   40.3795 H   0  0  0  0  0  0  0  0  0  0  0  0
   74.4430   42.3393   36.1848 H   0  0  0  0  0  0  0  0  0  0  0  0
   73.3947   43.2098   37.3729 H   0  0  0  0  0  0  0  0  0  0  0  0
   71.2109   41.1091   34.3965 H   0  0  0  0  0  0  0  0  0  0  0  0
   72.8891   41.5785   34.5524 H   0  0  0  0  0  0  0  0  0  0  0  0
   72.2297   43.6968   35.6565 H   0  0  0  0  0  0  0  0  0  0  0  0
   71.2542   43.4710   34.2128 H   0  0  0  0  0  0  0  0  0  0  0  0
   69.0646   42.2607   37.3902 H   0  0  0  0  0  0  0  0  0  0  0  0
  1  2  2  0  0  0  0
  3  2  1  0  0  0  0
  2 18  1  0  0  0  0
  3  4  1  0  0  0  0
  3 19  1  0  0  0  0
  3 14  1  0  0  0  0
  4 13  1  0  0  0  0
  4  5  1  0  0  0  0
  5  6  2  0  0  0  0
  5  7  1  0  0  0  0
  7 12  2  0  0  0  0
  7  8  1  0  0  0  0
  8  9  2  0  0  0  0
  8 13  1  0  0  0  0
  9 20  1  0  0  0  0
  9 10  1  0  0  0  0
 10 11  2  0  0  0  0
 10 21  1  0  0  0  0
 11 12  1  0  0  0  0
 11 22  1  0  0  0  0
 12 23  1  0  0  0  0
 13 24  1  0  0  0  0
 13 25  1  0  0  0  0
 14 15  1  0  0  0  0
 14 26  1  0  0  0  0
 14 27  1  0  0  0  0
 15 16  1  0  0  0  0
 15 28  1  0  0  0  0
 15 29  1  0  0  0  0
 16 18  1  0  0  0  0
 16 17  2  0  0  0  0
 18 30  1  0  0  0  0
M  ZZC   1 o1
M  ZZC   2 c1
M  ZZC   3 c2
M  ZZC   4 n1
M  ZZC   5 c3
M  ZZC   6 o2
M  ZZC   7 c4
M  ZZC   8 c5
M  ZZC   9 c6
M  ZZC  10 c7
M  ZZC  11 c8
M  ZZC  12 c9
M  ZZC  13 c10
M  ZZC  14 c11
M  ZZC  15 c12
M  ZZC  16 c13
M  ZZC  17 o3
M  ZZC  18 n2
M  ZZC  19 h21
M  ZZC  20 h61
M  ZZC  21 h71
M  ZZC  22 h81
M  ZZC  23 h91
M  ZZC  24 h101
M  ZZC  25 h102
M  ZZC  26 h111
M  ZZC  27 h112
M  ZZC  28 h121
M  ZZC  29 h122
M  ZZC  30 h01
M  ZZM   1 7
M  ZZI   1 81
M  ZZM   2 3
M  ZZI   2 121
M  ZZM   3 1
M  ZZI   3 113
M  ZZM   4 10
M  ZZI   4 192
M  ZZM   5 3
M  ZZI   5 121
M  ZZM   6 7
M  ZZI   6 81
M  ZZM   7 37
M  ZZI   7 124
M  ZZM   8 37
M  ZZI   8 124
M  ZZM   9 37
M  ZZI   9 125
M  ZZM  10 37
M  ZZI  10 125
M  ZZM  11 37
M  ZZI  11 125
M  ZZM  12 37
M  ZZI  12 125
M  ZZM  13 1
M  ZZI  13 112
M  ZZM  14 1
M  ZZI  14 112
M  ZZM  15 1
M  ZZI  15 112
M  ZZM  16 3
M  ZZI  16 121
M  ZZM  17 7
M  ZZI  17 81
M  ZZM  18 10
M  ZZI  18 191
M  ZZM  19 5
M  ZZI  19 1
M  ZZM  20 5
M  ZZI  20 1
M  ZZM  21 5
M  ZZI  21 1
M  ZZM  22 5
M  ZZI  22 1
M  ZZM  23 5
M  ZZI  23 1
M  ZZM  24 5
M  ZZI  24 1
M  ZZM  25 5
M  ZZI  25 1
M  ZZM  26 5
M  ZZI  26 1
M  ZZM  27 5
M  ZZI  27 1
M  ZZM  28 5
M  ZZI  28 1
M  ZZM  29 5
M  ZZI  29 1
M  ZZM  30 28
M  ZZI  30 11
M  END
> <IX>
1

> <NAME>
Cereblon_5VBP_26.pdb

> <Score>
-14.324265

> <Natom>
30

> <Nflex>
1

> <Hbond>
-4.301015

> <Hphob>
-3.908443

> <VwInt>
-21.820262

> <Dsolv>
12.60543

> <SolEl>
11.568898

> <Eintl>
5.511128

> <RecConf>
ND

> <projPath>
Cereblon_maps/

> <NAME_>
Cereblon_5VBP_26.pdb

$$$$
