Cereblon_5VBP_29.pdb
  MOLSOFT 04032206273D

 30 32  0  0  1  0  0  0  0  0999 V2000
   79.3179   56.9042   20.9497 C   0  0  0  0  0  0  0  0  0  0  0  0
   80.6160   56.8196   20.4751 C   0  0  0  0  0  0  0  0  0  0  0  0
   81.2508   55.6111   20.4235 C   0  0  0  0  0  0  0  0  0  0  0  0
   82.6066   55.8204   19.9115 C   0  0  0  0  0  0  0  0  0  0  0  0
   83.4365   54.9286   19.8089 O   0  0  0  0  0  0  0  0  0  0  0  0
   82.7193   57.1714   19.6242 N   0  0  0  0  0  0  0  0  0  0  0  0
   83.8187   57.8253   18.8974 C   0  0  2  0  0  0  0  0  0  0  0  0
   83.6469   57.5690   17.3977 C   0  0  0  0  0  0  0  0  0  0  0  0
   82.5518   57.4803   16.8611 O   0  0  0  0  0  0  0  0  0  0  0  0
   84.7984   57.4975   16.6483 N   0  0  0  0  0  0  0  0  0  0  0  0
   86.0996   57.5319   17.0916 C   0  0  0  0  0  0  0  0  0  0  0  0
   87.0357   57.1675   16.3948 O   0  0  0  0  0  0  0  0  0  0  0  0
   86.2740   58.0350   18.5008 C   0  0  0  0  0  0  0  0  0  0  0  0
   85.2079   57.4169   19.3828 C   0  0  0  0  0  0  0  0  0  0  0  0
   81.5037   57.8938   19.9580 C   0  0  0  0  0  0  0  0  0  0  0  0
   80.6475   54.4269   20.7984 C   0  0  0  0  0  0  0  0  0  0  0  0
   79.3457   54.5034   21.2711 C   0  0  0  0  0  0  0  0  0  0  0  0
   78.6958   55.7317   21.3588 C   0  0  0  0  0  0  0  0  0  0  0  0
   78.7966   57.8557   21.0017 H   0  0  0  0  0  0  0  0  0  0  0  0
   83.7081   58.9048   19.0474 H   0  0  0  0  0  0  0  0  0  0  0  0
   84.6586   57.2393   15.6796 H   0  0  0  0  0  0  0  0  0  0  0  0
   87.2678   57.7505   18.8575 H   0  0  0  0  0  0  0  0  0  0  0  0
   86.2121   59.1287   18.5004 H   0  0  0  0  0  0  0  0  0  0  0  0
   85.3318   56.3326   19.3468 H   0  0  0  0  0  0  0  0  0  0  0  0
   85.3503   57.7213   20.4238 H   0  0  0  0  0  0  0  0  0  0  0  0
   81.0875   58.3548   19.0558 H   0  0  0  0  0  0  0  0  0  0  0  0
   81.7301   58.6450   20.7224 H   0  0  0  0  0  0  0  0  0  0  0  0
   81.1703   53.4791   20.7188 H   0  0  0  0  0  0  0  0  0  0  0  0
   78.8320   53.5970   21.5745 H   0  0  0  0  0  0  0  0  0  0  0  0
   77.6839   55.7738   21.7470 H   0  0  0  0  0  0  0  0  0  0  0  0
  1 19  1  0  0  0  0
  1 18  2  0  0  0  0
  1  2  1  0  0  0  0
  2  3  2  0  0  0  0
  2 15  1  0  0  0  0
  3 16  1  0  0  0  0
  3  4  1  0  0  0  0
  4  6  1  0  0  0  0
  4  5  2  0  0  0  0
  6 15  1  0  0  0  0
  7  6  1  0  0  0  0
  7 20  1  0  0  0  0
  7  8  1  0  0  0  0
  7 14  1  0  0  0  0
  8  9  2  0  0  0  0
  8 10  1  0  0  0  0
 10 21  1  0  0  0  0
 10 11  1  0  0  0  0
 11 12  2  0  0  0  0
 11 13  1  0  0  0  0
 13 22  1  0  0  0  0
 13 23  1  0  0  0  0
 13 14  1  0  0  0  0
 14 24  1  0  0  0  0
 14 25  1  0  0  0  0
 15 26  1  0  0  0  0
 15 27  1  0  0  0  0
 16 17  2  0  0  0  0
 16 28  1  0  0  0  0
 17 18  1  0  0  0  0
 17 29  1  0  0  0  0
 18 30  1  0  0  0  0
M  ZZC   1 c1
M  ZZC   2 c2
M  ZZC   3 c3
M  ZZC   4 c4
M  ZZC   5 o1
M  ZZC   6 n1
M  ZZC   7 c5
M  ZZC   8 c6
M  ZZC   9 o2
M  ZZC  10 n2
M  ZZC  11 c7
M  ZZC  12 o3
M  ZZC  13 c8
M  ZZC  14 c9
M  ZZC  15 c10
M  ZZC  16 c11
M  ZZC  17 c12
M  ZZC  18 c13
M  ZZC  19 h11
M  ZZC  20 h51
M  ZZC  21 h21
M  ZZC  22 h81
M  ZZC  23 h82
M  ZZC  24 h91
M  ZZC  25 h92
M  ZZC  26 h101
M  ZZC  27 h102
M  ZZC  28 h111
M  ZZC  29 h121
M  ZZC  30 h131
M  ZZM   1 37
M  ZZI   1 125
M  ZZM   2 37
M  ZZI   2 124
M  ZZM   3 37
M  ZZI   3 124
M  ZZM   4 3
M  ZZI   4 121
M  ZZM   5 7
M  ZZI   5 81
M  ZZM   6 10
M  ZZI   6 192
M  ZZM   7 1
M  ZZI   7 113
M  ZZM   8 3
M  ZZI   8 121
M  ZZM   9 7
M  ZZI   9 81
M  ZZM  10 10
M  ZZI  10 191
M  ZZM  11 3
M  ZZI  11 121
M  ZZM  12 7
M  ZZI  12 81
M  ZZM  13 1
M  ZZI  13 112
M  ZZM  14 1
M  ZZI  14 112
M  ZZM  15 1
M  ZZI  15 112
M  ZZM  16 37
M  ZZI  16 125
M  ZZM  17 37
M  ZZI  17 125
M  ZZM  18 37
M  ZZI  18 125
M  ZZM  19 5
M  ZZI  19 1
M  ZZM  20 5
M  ZZI  20 1
M  ZZM  21 28
M  ZZI  21 11
M  ZZM  22 5
M  ZZI  22 1
M  ZZM  23 5
M  ZZI  23 1
M  ZZM  24 5
M  ZZI  24 1
M  ZZM  25 5
M  ZZI  25 1
M  ZZM  26 5
M  ZZI  26 1
M  ZZM  27 5
M  ZZI  27 1
M  ZZM  28 5
M  ZZI  28 1
M  ZZM  29 5
M  ZZI  29 1
M  ZZM  30 5
M  ZZI  30 1
M  END
> <IX>
1

> <NAME>
Cereblon_5VBP_29.pdb

> <Score>
-14.379338

> <Natom>
30

> <Nflex>
1

> <Hbond>
-3.489993

> <Hphob>
-3.283346

> <VwInt>
-18.295985

> <Dsolv>
10.126746

> <SolEl>
7.386972

> <Eintl>
3.126185

> <RecConf>
ND

> <projPath>
Cereblon_maps/

> <NAME_>
Cereblon_5VBP_29.pdb

$$$$
