Cereblon_1EJ1_9.pdb
  MOLSOFT 04032206183D

 30 32  0  0  1  0  0  0  0  0999 V2000
   71.0248   41.3770   37.9119 C   0  0  0  0  0  0  0  0  0  0  0  0
   72.4061   41.3387   38.0085 C   0  0  0  0  0  0  0  0  0  0  0  0
   73.1727   42.0641   37.1388 C   0  0  0  0  0  0  0  0  0  0  0  0
   74.5804   41.8665   37.4935 C   0  0  0  0  0  0  0  0  0  0  0  0
   75.5257   42.4039   36.9325 O   0  0  0  0  0  0  0  0  0  0  0  0
   74.5979   40.9783   38.5514 N   0  0  0  0  0  0  0  0  0  0  0  0
   75.8315   40.5555   39.2259 C   0  0  1  0  0  0  0  0  0  0  0  0
   76.2203   41.5877   40.2690 C   0  0  0  0  0  0  0  0  0  0  0  0
   75.8623   42.7525   40.1996 O   0  0  0  0  0  0  0  0  0  0  0  0
   77.0484   41.1461   41.2749 N   0  0  0  0  0  0  0  0  0  0  0  0
   77.5145   39.8728   41.4950 C   0  0  0  0  0  0  0  0  0  0  0  0
   78.2592   39.6094   42.4247 O   0  0  0  0  0  0  0  0  0  0  0  0
   77.0899   38.8250   40.4952 C   0  0  0  0  0  0  0  0  0  0  0  0
   75.7543   39.1736   39.8637 C   0  0  0  0  0  0  0  0  0  0  0  0
   73.2614   40.6159   38.9862 C   0  0  0  0  0  0  0  0  0  0  0  0
   72.6328   42.8473   36.1361 C   0  0  0  0  0  0  0  0  0  0  0  0
   71.2504   42.8914   36.0312 C   0  0  0  0  0  0  0  0  0  0  0  0
   70.4572   42.1656   36.9151 C   0  0  0  0  0  0  0  0  0  0  0  0
   70.4044   40.8222   38.6078 H   0  0  0  0  0  0  0  0  0  0  0  0
   76.6319   40.5823   38.4834 H   0  0  0  0  0  0  0  0  0  0  0  0
   77.3409   41.8467   41.9446 H   0  0  0  0  0  0  0  0  0  0  0  0
   77.8738   38.7393   39.7356 H   0  0  0  0  0  0  0  0  0  0  0  0
   77.0136   37.8625   41.0109 H   0  0  0  0  0  0  0  0  0  0  0  0
   75.4878   38.4203   39.1161 H   0  0  0  0  0  0  0  0  0  0  0  0
   74.9732   39.1444   40.6295 H   0  0  0  0  0  0  0  0  0  0  0  0
   73.0986   40.9745   40.0088 H   0  0  0  0  0  0  0  0  0  0  0  0
   73.1271   39.5316   38.9137 H   0  0  0  0  0  0  0  0  0  0  0  0
   73.2634   43.4154   35.4676 H   0  0  0  0  0  0  0  0  0  0  0  0
   70.7862   43.5041   35.2641 H   0  0  0  0  0  0  0  0  0  0  0  0
   69.3775   42.2272   36.8290 H   0  0  0  0  0  0  0  0  0  0  0  0
  1 19  1  0  0  0  0
  1 18  2  0  0  0  0
  1  2  1  0  0  0  0
  2  3  2  0  0  0  0
  2 15  1  0  0  0  0
  3 16  1  0  0  0  0
  3  4  1  0  0  0  0
  4  6  1  0  0  0  0
  4  5  2  0  0  0  0
  6 15  1  0  0  0  0
  7  6  1  0  0  0  0
  7 20  1  0  0  0  0
  7  8  1  0  0  0  0
  7 14  1  0  0  0  0
  8  9  2  0  0  0  0
  8 10  1  0  0  0  0
 10 21  1  0  0  0  0
 10 11  1  0  0  0  0
 11 12  2  0  0  0  0
 11 13  1  0  0  0  0
 13 22  1  0  0  0  0
 13 23  1  0  0  0  0
 13 14  1  0  0  0  0
 14 24  1  0  0  0  0
 14 25  1  0  0  0  0
 15 26  1  0  0  0  0
 15 27  1  0  0  0  0
 16 17  2  0  0  0  0
 16 28  1  0  0  0  0
 17 18  1  0  0  0  0
 17 29  1  0  0  0  0
 18 30  1  0  0  0  0
M  ZZC   1 c1
M  ZZC   2 c2
M  ZZC   3 c3
M  ZZC   4 c4
M  ZZC   5 o1
M  ZZC   6 n1
M  ZZC   7 c5
M  ZZC   8 c6
M  ZZC   9 o2
M  ZZC  10 n2
M  ZZC  11 c7
M  ZZC  12 o3
M  ZZC  13 c8
M  ZZC  14 c9
M  ZZC  15 c10
M  ZZC  16 c11
M  ZZC  17 c12
M  ZZC  18 c13
M  ZZC  19 h11
M  ZZC  20 h51
M  ZZC  21 h21
M  ZZC  22 h81
M  ZZC  23 h82
M  ZZC  24 h91
M  ZZC  25 h92
M  ZZC  26 h101
M  ZZC  27 h102
M  ZZC  28 h111
M  ZZC  29 h121
M  ZZC  30 h131
M  ZZM   1 37
M  ZZI   1 125
M  ZZM   2 37
M  ZZI   2 124
M  ZZM   3 37
M  ZZI   3 124
M  ZZM   4 3
M  ZZI   4 121
M  ZZM   5 7
M  ZZI   5 81
M  ZZM   6 10
M  ZZI   6 192
M  ZZM   7 1
M  ZZI   7 113
M  ZZM   8 3
M  ZZI   8 121
M  ZZM   9 7
M  ZZI   9 81
M  ZZM  10 10
M  ZZI  10 191
M  ZZM  11 3
M  ZZI  11 121
M  ZZM  12 7
M  ZZI  12 81
M  ZZM  13 1
M  ZZI  13 112
M  ZZM  14 1
M  ZZI  14 112
M  ZZM  15 1
M  ZZI  15 112
M  ZZM  16 37
M  ZZI  16 125
M  ZZM  17 37
M  ZZI  17 125
M  ZZM  18 37
M  ZZI  18 125
M  ZZM  19 5
M  ZZI  19 1
M  ZZM  20 5
M  ZZI  20 1
M  ZZM  21 28
M  ZZI  21 11
M  ZZM  22 5
M  ZZI  22 1
M  ZZM  23 5
M  ZZI  23 1
M  ZZM  24 5
M  ZZI  24 1
M  ZZM  25 5
M  ZZI  25 1
M  ZZM  26 5
M  ZZI  26 1
M  ZZM  27 5
M  ZZI  27 1
M  ZZM  28 5
M  ZZI  28 1
M  ZZM  29 5
M  ZZI  29 1
M  ZZM  30 5
M  ZZI  30 1
M  END
> <IX>
1

> <NAME>
Cereblon_1EJ1_9.pdb

> <Score>
-14.306487

> <Natom>
30

> <Nflex>
1

> <Hbond>
-3.351303

> <Hphob>
-3.747976

> <VwInt>
-20.16514

> <Dsolv>
13.682094

> <SolEl>
8.139867

> <Eintl>
1.024518

> <RecConf>
ND

> <projPath>
Cereblon_maps/

> <NAME_>
Cereblon_1EJ1_9.pdb

$$$$
