Cereblon_5E80_6.pdb
  MOLSOFT 04032206243D

 31 33  0  0  1  0  0  0  0  0999 V2000
   77.6248   41.8907   41.9154 N   0  0  0  0  0  0  0  0  0  0  0  0
   77.2714   40.5840   41.5454 C   0  0  0  0  0  0  0  0  0  0  0  0
   76.3439   40.2984   40.5504 C   0  0  0  0  0  0  0  0  0  0  0  0
   75.4429   41.1760   39.7955 C   0  0  0  0  0  0  0  0  0  0  0  0
   75.2895   42.3671   40.0163 O   0  0  0  0  0  0  0  0  0  0  0  0
   74.7963   40.3818   38.8739 N   0  0  0  0  0  0  0  0  0  0  0  0
   75.0970   39.0551   39.0811 C   0  0  0  0  0  0  0  0  0  0  0  0
   74.6183   38.0607   38.5553 O   0  0  0  0  0  0  0  0  0  0  0  0
   76.1137   39.0216   40.1288 C   0  0  0  0  0  0  0  0  0  0  0  0
   76.7711   37.9299   40.6620 C   0  0  0  0  0  0  0  0  0  0  0  0
   77.6943   38.1881   41.6643 C   0  0  0  0  0  0  0  0  0  0  0  0
   77.9396   39.4920   42.0908 C   0  0  0  0  0  0  0  0  0  0  0  0
   73.7532   40.8311   37.9481 C   0  0  2  0  0  0  0  0  0  0  0  0
   74.1778   42.0693   37.1619 C   0  0  0  0  0  0  0  0  0  0  0  0
   75.3448   42.3468   36.9239 O   0  0  0  0  0  0  0  0  0  0  0  0
   73.1483   42.8314   36.6587 N   0  0  0  0  0  0  0  0  0  0  0  0
   71.7933   42.6489   36.8024 C   0  0  0  0  0  0  0  0  0  0  0  0
   70.9830   43.3919   36.2697 O   0  0  0  0  0  0  0  0  0  0  0  0
   71.3691   41.4490   37.6158 C   0  0  0  0  0  0  0  0  0  0  0  0
   72.4207   41.0639   38.6460 C   0  0  0  0  0  0  0  0  0  0  0  0
   78.1665   42.0402   42.7643 H   0  0  0  0  0  0  0  0  0  0  0  0
   77.1091   42.6825   41.5294 H   0  0  0  0  0  0  0  0  0  0  0  0
   76.5756   36.9193   40.3157 H   0  0  0  0  0  0  0  0  0  0  0  0
   78.2401   37.3660   42.1172 H   0  0  0  0  0  0  0  0  0  0  0  0
   78.6805   39.6557   42.8668 H   0  0  0  0  0  0  0  0  0  0  0  0
   73.6157   40.0335   37.2087 H   0  0  0  0  0  0  0  0  0  0  0  0
   73.4198   43.6399   36.1166 H   0  0  0  0  0  0  0  0  0  0  0  0
   70.4287   41.6888   38.1206 H   0  0  0  0  0  0  0  0  0  0  0  0
   71.1792   40.6208   36.9251 H   0  0  0  0  0  0  0  0  0  0  0  0
   72.5176   41.8457   39.4062 H   0  0  0  0  0  0  0  0  0  0  0  0
   72.1032   40.1597   39.1756 H   0  0  0  0  0  0  0  0  0  0  0  0
  1  2  1  0  0  0  0
  1 21  1  0  0  0  0
  1 22  1  0  0  0  0
  2  3  1  0  0  0  0
  2 12  2  0  0  0  0
  3  9  2  0  0  0  0
  3  4  1  0  0  0  0
  4  5  2  0  0  0  0
  4  6  1  0  0  0  0
  6  7  1  0  0  0  0
 13  6  1  0  0  0  0
  7  8  2  0  0  0  0
  7  9  1  0  0  0  0
  9 10  1  0  0  0  0
 10 23  1  0  0  0  0
 10 11  2  0  0  0  0
 11 12  1  0  0  0  0
 11 24  1  0  0  0  0
 12 25  1  0  0  0  0
 13 26  1  0  0  0  0
 13 14  1  0  0  0  0
 13 20  1  0  0  0  0
 14 15  2  0  0  0  0
 14 16  1  0  0  0  0
 16 27  1  0  0  0  0
 16 17  1  0  0  0  0
 17 18  2  0  0  0  0
 17 19  1  0  0  0  0
 19 28  1  0  0  0  0
 19 29  1  0  0  0  0
 19 20  1  0  0  0  0
 20 30  1  0  0  0  0
 20 31  1  0  0  0  0
M  ZZC   1 n1
M  ZZC   2 c1
M  ZZC   3 c2
M  ZZC   4 c3
M  ZZC   5 o1
M  ZZC   6 n2
M  ZZC   7 c4
M  ZZC   8 o2
M  ZZC   9 c5
M  ZZC  10 c6
M  ZZC  11 c7
M  ZZC  12 c8
M  ZZC  13 c9
M  ZZC  14 c10
M  ZZC  15 o3
M  ZZC  16 n3
M  ZZC  17 c11
M  ZZC  18 o4
M  ZZC  19 c12
M  ZZC  20 c13
M  ZZC  21 h11
M  ZZC  22 h12
M  ZZC  23 h61
M  ZZC  24 h71
M  ZZC  25 h81
M  ZZC  26 h91
M  ZZC  27 h31
M  ZZC  28 h121
M  ZZC  29 h122
M  ZZC  30 h131
M  ZZC  31 h132
M  ZZM   1 40
M  ZZI   1 224
M  ZZM   2 37
M  ZZI   2 124
M  ZZM   3 37
M  ZZI   3 124
M  ZZM   4 3
M  ZZI   4 121
M  ZZM   5 7
M  ZZI   5 81
M  ZZM   6 10
M  ZZI   6 192
M  ZZM   7 3
M  ZZI   7 121
M  ZZM   8 7
M  ZZI   8 81
M  ZZM   9 37
M  ZZI   9 124
M  ZZM  10 37
M  ZZI  10 125
M  ZZM  11 37
M  ZZI  11 125
M  ZZM  12 37
M  ZZI  12 125
M  ZZM  13 1
M  ZZI  13 113
M  ZZM  14 3
M  ZZI  14 121
M  ZZM  15 7
M  ZZI  15 81
M  ZZM  16 10
M  ZZI  16 191
M  ZZM  17 3
M  ZZI  17 121
M  ZZM  18 7
M  ZZI  18 81
M  ZZM  19 1
M  ZZI  19 112
M  ZZM  20 1
M  ZZI  20 112
M  ZZM  21 28
M  ZZI  21 11
M  ZZM  22 28
M  ZZI  22 11
M  ZZM  23 5
M  ZZI  23 1
M  ZZM  24 5
M  ZZI  24 1
M  ZZM  25 5
M  ZZI  25 1
M  ZZM  26 5
M  ZZI  26 1
M  ZZM  27 28
M  ZZI  27 11
M  ZZM  28 5
M  ZZI  28 1
M  ZZM  29 5
M  ZZI  29 1
M  ZZM  30 5
M  ZZI  30 1
M  ZZM  31 5
M  ZZI  31 1
M  END
> <IX>
1

> <NAME>
Cereblon_5E80_6.pdb

> <Score>
-15.201062

> <Natom>
31

> <Nflex>
1

> <Hbond>
-4.138027

> <Hphob>
-3.494067

> <VwInt>
-23.348694

> <Dsolv>
17.372387

> <SolEl>
8.170483

> <Eintl>
3.226758

> <RecConf>
ND

> <projPath>
Cereblon_maps/

> <NAME_>
Cereblon_5E80_6.pdb

$$$$
