Cereblon_6NUQ_13.pdb
  MOLSOFT 04032206283D

 30 32  0  0  1  0  0  0  0  0999 V2000
   75.7025   37.9221   39.7458 C   0  0  0  0  0  0  0  0  0  0  0  0
   74.9978   39.0170   39.2718 C   0  0  0  0  0  0  0  0  0  0  0  0
   75.3064   40.2706   39.7193 C   0  0  0  0  0  0  0  0  0  0  0  0
   74.4110   41.2243   39.0621 C   0  0  0  0  0  0  0  0  0  0  0  0
   74.4116   42.4203   39.3106 O   0  0  0  0  0  0  0  0  0  0  0  0
   73.6324   40.4977   38.1743 N   0  0  0  0  0  0  0  0  0  0  0  0
   72.5971   41.0158   37.2650 C   0  0  1  0  0  0  0  0  0  0  0  0
   71.2767   41.2508   37.9973 C   0  0  0  0  0  0  0  0  0  0  0  0
   70.9109   40.5794   38.9512 O   0  0  0  0  0  0  0  0  0  0  0  0
   70.4463   42.2061   37.4565 N   0  0  0  0  0  0  0  0  0  0  0  0
   70.6548   43.0204   36.3755 C   0  0  0  0  0  0  0  0  0  0  0  0
   69.8599   43.8989   36.0777 O   0  0  0  0  0  0  0  0  0  0  0  0
   71.9084   42.7408   35.5866 C   0  0  0  0  0  0  0  0  0  0  0  0
   73.0274   42.2668   36.4995 C   0  0  0  0  0  0  0  0  0  0  0  0
   73.8849   39.0712   38.2870 C   0  0  0  0  0  0  0  0  0  0  0  0
   76.3152   40.5244   40.6311 C   0  0  0  0  0  0  0  0  0  0  0  0
   77.0240   39.4317   41.1080 C   0  0  0  0  0  0  0  0  0  0  0  0
   76.7192   38.1466   40.6670 C   0  0  0  0  0  0  0  0  0  0  0  0
   75.4772   36.9167   39.4040 H   0  0  0  0  0  0  0  0  0  0  0  0
   72.4038   40.2259   36.5296 H   0  0  0  0  0  0  0  0  0  0  0  0
   69.5778   42.3639   37.9466 H   0  0  0  0  0  0  0  0  0  0  0  0
   71.6772   41.9944   34.8191 H   0  0  0  0  0  0  0  0  0  0  0  0
   72.2059   43.6637   35.0846 H   0  0  0  0  0  0  0  0  0  0  0  0
   73.9261   42.0542   35.9116 H   0  0  0  0  0  0  0  0  0  0  0  0
   73.2856   43.0790   37.1850 H   0  0  0  0  0  0  0  0  0  0  0  0
   74.1758   38.6648   37.3126 H   0  0  0  0  0  0  0  0  0  0  0  0
   72.9859   38.5719   38.6643 H   0  0  0  0  0  0  0  0  0  0  0  0
   76.5519   41.5333   40.9533 H   0  0  0  0  0  0  0  0  0  0  0  0
   77.8230   39.5828   41.8275 H   0  0  0  0  0  0  0  0  0  0  0  0
   77.2892   37.3045   41.0466 H   0  0  0  0  0  0  0  0  0  0  0  0
  1 19  1  0  0  0  0
  1 18  2  0  0  0  0
  1  2  1  0  0  0  0
  2  3  2  0  0  0  0
  2 15  1  0  0  0  0
  3 16  1  0  0  0  0
  3  4  1  0  0  0  0
  4  6  1  0  0  0  0
  4  5  2  0  0  0  0
  6 15  1  0  0  0  0
  7  6  1  0  0  0  0
  7 20  1  0  0  0  0
  7  8  1  0  0  0  0
  7 14  1  0  0  0  0
  8  9  2  0  0  0  0
  8 10  1  0  0  0  0
 10 21  1  0  0  0  0
 10 11  1  0  0  0  0
 11 12  2  0  0  0  0
 11 13  1  0  0  0  0
 13 22  1  0  0  0  0
 13 23  1  0  0  0  0
 13 14  1  0  0  0  0
 14 24  1  0  0  0  0
 14 25  1  0  0  0  0
 15 26  1  0  0  0  0
 15 27  1  0  0  0  0
 16 17  2  0  0  0  0
 16 28  1  0  0  0  0
 17 18  1  0  0  0  0
 17 29  1  0  0  0  0
 18 30  1  0  0  0  0
M  ZZC   1 c1
M  ZZC   2 c2
M  ZZC   3 c3
M  ZZC   4 c4
M  ZZC   5 o1
M  ZZC   6 n1
M  ZZC   7 c5
M  ZZC   8 c6
M  ZZC   9 o2
M  ZZC  10 n2
M  ZZC  11 c7
M  ZZC  12 o3
M  ZZC  13 c8
M  ZZC  14 c9
M  ZZC  15 c10
M  ZZC  16 c11
M  ZZC  17 c12
M  ZZC  18 c13
M  ZZC  19 h11
M  ZZC  20 h51
M  ZZC  21 h21
M  ZZC  22 h81
M  ZZC  23 h82
M  ZZC  24 h91
M  ZZC  25 h92
M  ZZC  26 h101
M  ZZC  27 h102
M  ZZC  28 h111
M  ZZC  29 h121
M  ZZC  30 h131
M  ZZM   1 37
M  ZZI   1 125
M  ZZM   2 37
M  ZZI   2 124
M  ZZM   3 37
M  ZZI   3 124
M  ZZM   4 3
M  ZZI   4 121
M  ZZM   5 7
M  ZZI   5 81
M  ZZM   6 10
M  ZZI   6 192
M  ZZM   7 1
M  ZZI   7 113
M  ZZM   8 3
M  ZZI   8 121
M  ZZM   9 7
M  ZZI   9 81
M  ZZM  10 10
M  ZZI  10 191
M  ZZM  11 3
M  ZZI  11 121
M  ZZM  12 7
M  ZZI  12 81
M  ZZM  13 1
M  ZZI  13 112
M  ZZM  14 1
M  ZZI  14 112
M  ZZM  15 1
M  ZZI  15 112
M  ZZM  16 37
M  ZZI  16 125
M  ZZM  17 37
M  ZZI  17 125
M  ZZM  18 37
M  ZZI  18 125
M  ZZM  19 5
M  ZZI  19 1
M  ZZM  20 5
M  ZZI  20 1
M  ZZM  21 28
M  ZZI  21 11
M  ZZM  22 5
M  ZZI  22 1
M  ZZM  23 5
M  ZZI  23 1
M  ZZM  24 5
M  ZZI  24 1
M  ZZM  25 5
M  ZZI  25 1
M  ZZM  26 5
M  ZZI  26 1
M  ZZM  27 5
M  ZZI  27 1
M  ZZM  28 5
M  ZZI  28 1
M  ZZM  29 5
M  ZZI  29 1
M  ZZM  30 5
M  ZZI  30 1
M  END
> <IX>
1

> <NAME>
Cereblon_6NUQ_13.pdb

> <Score>
-20.761262

> <Natom>
30

> <Nflex>
1

> <Hbond>
-4.661927

> <Hphob>
-3.587537

> <VwInt>
-21.949414

> <Dsolv>
13.27719

> <SolEl>
5.746757

> <Eintl>
1.726208

> <RecConf>
ND

> <projPath>
Cereblon_maps/

> <NAME_>
Cereblon_6NUQ_13.pdb

$$$$
