Cereblon_3HLL_16.pdb
  MOLSOFT 04032206203D

 31 33  0  0  1  0  0  0  0  0999 V2000
   77.3750   41.1672   41.6166 N   0  0  0  0  0  0  0  0  0  0  0  0
   76.8232   40.0202   41.0233 C   0  0  0  0  0  0  0  0  0  0  0  0
   75.8207   40.0722   40.0636 C   0  0  0  0  0  0  0  0  0  0  0  0
   75.0852   41.2165   39.5274 C   0  0  0  0  0  0  0  0  0  0  0  0
   75.2403   42.3706   39.8953 O   0  0  0  0  0  0  0  0  0  0  0  0
   74.2099   40.7238   38.5861 N   0  0  0  0  0  0  0  0  0  0  0  0
   74.2933   39.3505   38.5083 C   0  0  0  0  0  0  0  0  0  0  0  0
   73.6554   38.5682   37.8189 O   0  0  0  0  0  0  0  0  0  0  0  0
   75.3339   38.9524   39.4559 C   0  0  0  0  0  0  0  0  0  0  0  0
   75.8112   37.6893   39.7466 C   0  0  0  0  0  0  0  0  0  0  0  0
   76.8275   37.6090   40.6897 C   0  0  0  0  0  0  0  0  0  0  0  0
   77.3246   38.7545   41.3124 C   0  0  0  0  0  0  0  0  0  0  0  0
   73.2836   41.5792   37.8396 C   0  0  2  0  0  0  0  0  0  0  0  0
   71.8590   41.4105   38.3504 C   0  0  0  0  0  0  0  0  0  0  0  0
   71.5853   40.9699   39.4577 O   0  0  0  0  0  0  0  0  0  0  0  0
   70.8803   41.8706   37.4978 N   0  0  0  0  0  0  0  0  0  0  0  0
   71.0216   42.4125   36.2421 C   0  0  0  0  0  0  0  0  0  0  0  0
   70.0773   42.8967   35.6382 O   0  0  0  0  0  0  0  0  0  0  0  0
   72.4219   42.4318   35.6767 C   0  0  0  0  0  0  0  0  0  0  0  0
   73.3095   41.3850   36.3302 C   0  0  0  0  0  0  0  0  0  0  0  0
   77.9987   41.0751   42.4166 H   0  0  0  0  0  0  0  0  0  0  0  0
   76.9830   42.0854   41.4037 H   0  0  0  0  0  0  0  0  0  0  0  0
   75.4181   36.8033   39.2566 H   0  0  0  0  0  0  0  0  0  0  0  0
   77.2440   36.6392   40.9443 H   0  0  0  0  0  0  0  0  0  0  0  0
   78.1256   38.6517   42.0379 H   0  0  0  0  0  0  0  0  0  0  0  0
   73.5733   42.6122   38.0525 H   0  0  0  0  0  0  0  0  0  0  0  0
   69.9373   41.8461   37.8572 H   0  0  0  0  0  0  0  0  0  0  0  0
   72.3651   42.2506   34.5985 H   0  0  0  0  0  0  0  0  0  0  0  0
   72.8310   43.4360   35.8303 H   0  0  0  0  0  0  0  0  0  0  0  0
   72.9624   40.3832   36.0546 H   0  0  0  0  0  0  0  0  0  0  0  0
   74.3300   41.4906   35.9555 H   0  0  0  0  0  0  0  0  0  0  0  0
  1  2  1  0  0  0  0
  1 21  1  0  0  0  0
  1 22  1  0  0  0  0
  2  3  1  0  0  0  0
  2 12  2  0  0  0  0
  3  9  2  0  0  0  0
  3  4  1  0  0  0  0
  4  5  2  0  0  0  0
  4  6  1  0  0  0  0
  6  7  1  0  0  0  0
 13  6  1  0  0  0  0
  7  8  2  0  0  0  0
  7  9  1  0  0  0  0
  9 10  1  0  0  0  0
 10 23  1  0  0  0  0
 10 11  2  0  0  0  0
 11 12  1  0  0  0  0
 11 24  1  0  0  0  0
 12 25  1  0  0  0  0
 13 26  1  0  0  0  0
 13 14  1  0  0  0  0
 13 20  1  0  0  0  0
 14 15  2  0  0  0  0
 14 16  1  0  0  0  0
 16 27  1  0  0  0  0
 16 17  1  0  0  0  0
 17 18  2  0  0  0  0
 17 19  1  0  0  0  0
 19 28  1  0  0  0  0
 19 29  1  0  0  0  0
 19 20  1  0  0  0  0
 20 30  1  0  0  0  0
 20 31  1  0  0  0  0
M  ZZC   1 n1
M  ZZC   2 c1
M  ZZC   3 c2
M  ZZC   4 c3
M  ZZC   5 o1
M  ZZC   6 n2
M  ZZC   7 c4
M  ZZC   8 o2
M  ZZC   9 c5
M  ZZC  10 c6
M  ZZC  11 c7
M  ZZC  12 c8
M  ZZC  13 c9
M  ZZC  14 c10
M  ZZC  15 o3
M  ZZC  16 n3
M  ZZC  17 c11
M  ZZC  18 o4
M  ZZC  19 c12
M  ZZC  20 c13
M  ZZC  21 h11
M  ZZC  22 h12
M  ZZC  23 h61
M  ZZC  24 h71
M  ZZC  25 h81
M  ZZC  26 h91
M  ZZC  27 h31
M  ZZC  28 h121
M  ZZC  29 h122
M  ZZC  30 h131
M  ZZC  31 h132
M  ZZM   1 40
M  ZZI   1 224
M  ZZM   2 37
M  ZZI   2 124
M  ZZM   3 37
M  ZZI   3 124
M  ZZM   4 3
M  ZZI   4 121
M  ZZM   5 7
M  ZZI   5 81
M  ZZM   6 10
M  ZZI   6 192
M  ZZM   7 3
M  ZZI   7 121
M  ZZM   8 7
M  ZZI   8 81
M  ZZM   9 37
M  ZZI   9 124
M  ZZM  10 37
M  ZZI  10 125
M  ZZM  11 37
M  ZZI  11 125
M  ZZM  12 37
M  ZZI  12 125
M  ZZM  13 1
M  ZZI  13 113
M  ZZM  14 3
M  ZZI  14 121
M  ZZM  15 7
M  ZZI  15 81
M  ZZM  16 10
M  ZZI  16 191
M  ZZM  17 3
M  ZZI  17 121
M  ZZM  18 7
M  ZZI  18 81
M  ZZM  19 1
M  ZZI  19 112
M  ZZM  20 1
M  ZZI  20 112
M  ZZM  21 28
M  ZZI  21 11
M  ZZM  22 28
M  ZZI  22 11
M  ZZM  23 5
M  ZZI  23 1
M  ZZM  24 5
M  ZZI  24 1
M  ZZM  25 5
M  ZZI  25 1
M  ZZM  26 5
M  ZZI  26 1
M  ZZM  27 28
M  ZZI  27 11
M  ZZM  28 5
M  ZZI  28 1
M  ZZM  29 5
M  ZZI  29 1
M  ZZM  30 5
M  ZZI  30 1
M  ZZM  31 5
M  ZZI  31 1
M  END
> <IX>
1

> <NAME>
Cereblon_3HLL_16.pdb

> <Score>
-9.669739

> <Natom>
31

> <Nflex>
1

> <Hbond>
-1.928394

> <Hphob>
-3.51707

> <VwInt>
-22.67545

> <Dsolv>
16.290488

> <SolEl>
10.625982

> <Eintl>
0.683282

> <RecConf>
ND

> <projPath>
Cereblon_maps/

> <NAME_>
Cereblon_3HLL_16.pdb

$$$$
