Cereblon_6J3P_1.pdb
  MOLSOFT 04032206283D

 29 31  0  0  1  0  0  0  0  0999 V2000
   79.0042   42.4937   42.6695 C   0  0  0  0  0  0  0  0  0  0  0  0
   78.1844   42.1982   41.5946 C   0  0  0  0  0  0  0  0  0  0  0  0
   77.2669   41.0802   41.4102 C   0  0  0  0  0  0  0  0  0  0  0  0
   77.0862   40.2207   42.2590 O   0  0  0  0  0  0  0  0  0  0  0  0
   76.7271   41.2202   40.1448 N   0  0  0  0  0  0  0  0  0  0  0  0
   77.2228   42.3468   39.5209 C   0  0  0  0  0  0  0  0  0  0  0  0
   76.9862   42.7641   38.3945 O   0  0  0  0  0  0  0  0  0  0  0  0
   78.1575   42.9596   40.4653 C   0  0  0  0  0  0  0  0  0  0  0  0
   78.9564   44.0758   40.3218 C   0  0  0  0  0  0  0  0  0  0  0  0
   79.8007   44.3852   41.3826 C   0  0  0  0  0  0  0  0  0  0  0  0
   79.8241   43.6080   42.5413 C   0  0  0  0  0  0  0  0  0  0  0  0
   75.7188   40.3645   39.5131 C   0  0  2  0  0  0  0  0  0  0  0  0
   74.3393   40.9334   39.8029 C   0  0  0  0  0  0  0  0  0  0  0  0
   74.1520   42.1193   40.0188 O   0  0  0  0  0  0  0  0  0  0  0  0
   73.2888   40.0519   39.7254 N   0  0  0  0  0  0  0  0  0  0  0  0
   73.3269   38.7059   39.4556 C   0  0  0  0  0  0  0  0  0  0  0  0
   72.3111   38.0326   39.3982 O   0  0  0  0  0  0  0  0  0  0  0  0
   74.6915   38.1229   39.1809 C   0  0  0  0  0  0  0  0  0  0  0  0
   75.7741   38.8942   39.9155 C   0  0  0  0  0  0  0  0  0  0  0  0
   79.0165   41.8796   43.5655 H   0  0  0  0  0  0  0  0  0  0  0  0
   78.9260   44.6754   39.4202 H   0  0  0  0  0  0  0  0  0  0  0  0
   80.4504   45.2500   41.3112 H   0  0  0  0  0  0  0  0  0  0  0  0
   80.4931   43.8761   43.3540 H   0  0  0  0  0  0  0  0  0  0  0  0
   75.8565   40.4522   38.4333 H   0  0  0  0  0  0  0  0  0  0  0  0
   72.3701   40.4451   39.8879 H   0  0  0  0  0  0  0  0  0  0  0  0
   74.6975   37.0777   39.5069 H   0  0  0  0  0  0  0  0  0  0  0  0
   74.8537   38.1416   38.0990 H   0  0  0  0  0  0  0  0  0  0  0  0
   76.7596   38.4729   39.6912 H   0  0  0  0  0  0  0  0  0  0  0  0
   75.6131   38.7749   40.9905 H   0  0  0  0  0  0  0  0  0  0  0  0
  1 20  1  0  0  0  0
  1  2  1  0  0  0  0
  1 11  2  0  0  0  0
  2  3  1  0  0  0  0
  2  8  2  0  0  0  0
  3  4  2  0  0  0  0
  3  5  1  0  0  0  0
  5  6  1  0  0  0  0
 12  5  1  0  0  0  0
  6  7  2  0  0  0  0
  6  8  1  0  0  0  0
  8  9  1  0  0  0  0
  9 21  1  0  0  0  0
  9 10  2  0  0  0  0
 10 22  1  0  0  0  0
 10 11  1  0  0  0  0
 11 23  1  0  0  0  0
 12 24  1  0  0  0  0
 12 13  1  0  0  0  0
 12 19  1  0  0  0  0
 13 14  2  0  0  0  0
 13 15  1  0  0  0  0
 15 25  1  0  0  0  0
 15 16  1  0  0  0  0
 16 17  2  0  0  0  0
 16 18  1  0  0  0  0
 18 26  1  0  0  0  0
 18 27  1  0  0  0  0
 18 19  1  0  0  0  0
 19 28  1  0  0  0  0
 19 29  1  0  0  0  0
M  ZZC   1 c1
M  ZZC   2 c2
M  ZZC   3 c3
M  ZZC   4 o1
M  ZZC   5 n1
M  ZZC   6 c4
M  ZZC   7 o2
M  ZZC   8 c5
M  ZZC   9 c6
M  ZZC  10 c7
M  ZZC  11 c8
M  ZZC  12 c9
M  ZZC  13 c10
M  ZZC  14 o3
M  ZZC  15 n2
M  ZZC  16 c11
M  ZZC  17 o4
M  ZZC  18 c12
M  ZZC  19 c13
M  ZZC  20 h11
M  ZZC  21 h61
M  ZZC  22 h71
M  ZZC  23 h81
M  ZZC  24 h91
M  ZZC  25 h21
M  ZZC  26 h121
M  ZZC  27 h122
M  ZZC  28 h131
M  ZZC  29 h132
M  ZZM   1 37
M  ZZI   1 125
M  ZZM   2 37
M  ZZI   2 124
M  ZZM   3 3
M  ZZI   3 121
M  ZZM   4 7
M  ZZI   4 81
M  ZZM   5 10
M  ZZI   5 192
M  ZZM   6 3
M  ZZI   6 121
M  ZZM   7 7
M  ZZI   7 81
M  ZZM   8 37
M  ZZI   8 124
M  ZZM   9 37
M  ZZI   9 125
M  ZZM  10 37
M  ZZI  10 125
M  ZZM  11 37
M  ZZI  11 125
M  ZZM  12 1
M  ZZI  12 113
M  ZZM  13 3
M  ZZI  13 121
M  ZZM  14 7
M  ZZI  14 81
M  ZZM  15 10
M  ZZI  15 191
M  ZZM  16 3
M  ZZI  16 121
M  ZZM  17 7
M  ZZI  17 81
M  ZZM  18 1
M  ZZI  18 112
M  ZZM  19 1
M  ZZI  19 112
M  ZZM  20 5
M  ZZI  20 1
M  ZZM  21 5
M  ZZI  21 1
M  ZZM  22 5
M  ZZI  22 1
M  ZZM  23 5
M  ZZI  23 1
M  ZZM  24 5
M  ZZI  24 1
M  ZZM  25 28
M  ZZI  25 11
M  ZZM  26 5
M  ZZI  26 1
M  ZZM  27 5
M  ZZI  27 1
M  ZZM  28 5
M  ZZI  28 1
M  ZZM  29 5
M  ZZI  29 1
M  END
> <IX>
1

> <NAME>
Cereblon_6J3P_1.pdb

> <Score>
-19.201107

> <Natom>
29

> <Nflex>
1

> <Hbond>
-3.288167

> <Hphob>
-3.5754

> <VwInt>
-22.83846

> <Dsolv>
12.0824

> <SolEl>
5.766873

> <Eintl>
1.473329

> <RecConf>
ND

> <projPath>
Cereblon_maps/

> <NAME_>
Cereblon_6J3P_1.pdb

$$$$
