Cereblon_2VTI_20.pdb
  MOLSOFT 04032206203D

 29 31  0  0  1  0  0  0  0  0999 V2000
   79.0036   42.4914   42.6735 C   0  0  0  0  0  0  0  0  0  0  0  0
   78.1857   42.1965   41.5973 C   0  0  0  0  0  0  0  0  0  0  0  0
   77.2679   41.0786   41.4120 C   0  0  0  0  0  0  0  0  0  0  0  0
   77.0864   40.2187   42.2603 O   0  0  0  0  0  0  0  0  0  0  0  0
   76.7278   41.2203   40.1470 N   0  0  0  0  0  0  0  0  0  0  0  0
   77.2237   42.3476   39.5238 C   0  0  0  0  0  0  0  0  0  0  0  0
   76.9879   42.7664   38.3978 O   0  0  0  0  0  0  0  0  0  0  0  0
   78.1588   42.9589   40.4688 C   0  0  0  0  0  0  0  0  0  0  0  0
   78.9574   44.0756   40.3271 C   0  0  0  0  0  0  0  0  0  0  0  0
   79.7995   44.3850   41.3895 C   0  0  0  0  0  0  0  0  0  0  0  0
   79.8227   43.6064   42.5473 C   0  0  0  0  0  0  0  0  0  0  0  0
   75.7194   40.3656   39.5140 C   0  0  2  0  0  0  0  0  0  0  0  0
   74.3394   40.9341   39.8026 C   0  0  0  0  0  0  0  0  0  0  0  0
   74.1526   42.1205   40.0161 O   0  0  0  0  0  0  0  0  0  0  0  0
   73.2892   40.0515   39.7303 N   0  0  0  0  0  0  0  0  0  0  0  0
   73.3270   38.7056   39.4601 C   0  0  0  0  0  0  0  0  0  0  0  0
   72.3115   38.0315   39.4063 O   0  0  0  0  0  0  0  0  0  0  0  0
   74.6911   38.1251   39.1801 C   0  0  0  0  0  0  0  0  0  0  0  0
   75.7746   38.8946   39.9148 C   0  0  0  0  0  0  0  0  0  0  0  0
   79.0135   41.8760   43.5689 H   0  0  0  0  0  0  0  0  0  0  0  0
   78.9267   44.6770   39.4264 H   0  0  0  0  0  0  0  0  0  0  0  0
   80.4479   45.2506   41.3204 H   0  0  0  0  0  0  0  0  0  0  0  0
   80.4895   43.8744   43.3619 H   0  0  0  0  0  0  0  0  0  0  0  0
   75.8585   40.4536   38.4345 H   0  0  0  0  0  0  0  0  0  0  0  0
   72.3708   40.4445   39.8947 H   0  0  0  0  0  0  0  0  0  0  0  0
   74.6982   37.0790   39.5023 H   0  0  0  0  0  0  0  0  0  0  0  0
   74.8496   38.1491   38.0976 H   0  0  0  0  0  0  0  0  0  0  0  0
   76.7596   38.4734   39.6891 H   0  0  0  0  0  0  0  0  0  0  0  0
   75.6143   38.7740   40.9899 H   0  0  0  0  0  0  0  0  0  0  0  0
  1 20  1  0  0  0  0
  1  2  1  0  0  0  0
  1 11  2  0  0  0  0
  2  3  1  0  0  0  0
  2  8  2  0  0  0  0
  3  4  2  0  0  0  0
  3  5  1  0  0  0  0
  5  6  1  0  0  0  0
 12  5  1  0  0  0  0
  6  7  2  0  0  0  0
  6  8  1  0  0  0  0
  8  9  1  0  0  0  0
  9 21  1  0  0  0  0
  9 10  2  0  0  0  0
 10 22  1  0  0  0  0
 10 11  1  0  0  0  0
 11 23  1  0  0  0  0
 12 24  1  0  0  0  0
 12 13  1  0  0  0  0
 12 19  1  0  0  0  0
 13 14  2  0  0  0  0
 13 15  1  0  0  0  0
 15 25  1  0  0  0  0
 15 16  1  0  0  0  0
 16 17  2  0  0  0  0
 16 18  1  0  0  0  0
 18 26  1  0  0  0  0
 18 27  1  0  0  0  0
 18 19  1  0  0  0  0
 19 28  1  0  0  0  0
 19 29  1  0  0  0  0
M  ZZC   1 c1
M  ZZC   2 c2
M  ZZC   3 c3
M  ZZC   4 o1
M  ZZC   5 n1
M  ZZC   6 c4
M  ZZC   7 o2
M  ZZC   8 c5
M  ZZC   9 c6
M  ZZC  10 c7
M  ZZC  11 c8
M  ZZC  12 c9
M  ZZC  13 c10
M  ZZC  14 o3
M  ZZC  15 n2
M  ZZC  16 c11
M  ZZC  17 o4
M  ZZC  18 c12
M  ZZC  19 c13
M  ZZC  20 h11
M  ZZC  21 h61
M  ZZC  22 h71
M  ZZC  23 h81
M  ZZC  24 h91
M  ZZC  25 h21
M  ZZC  26 h121
M  ZZC  27 h122
M  ZZC  28 h131
M  ZZC  29 h132
M  ZZM   1 37
M  ZZI   1 125
M  ZZM   2 37
M  ZZI   2 124
M  ZZM   3 3
M  ZZI   3 121
M  ZZM   4 7
M  ZZI   4 81
M  ZZM   5 10
M  ZZI   5 192
M  ZZM   6 3
M  ZZI   6 121
M  ZZM   7 7
M  ZZI   7 81
M  ZZM   8 37
M  ZZI   8 124
M  ZZM   9 37
M  ZZI   9 125
M  ZZM  10 37
M  ZZI  10 125
M  ZZM  11 37
M  ZZI  11 125
M  ZZM  12 1
M  ZZI  12 113
M  ZZM  13 3
M  ZZI  13 121
M  ZZM  14 7
M  ZZI  14 81
M  ZZM  15 10
M  ZZI  15 191
M  ZZM  16 3
M  ZZI  16 121
M  ZZM  17 7
M  ZZI  17 81
M  ZZM  18 1
M  ZZI  18 112
M  ZZM  19 1
M  ZZI  19 112
M  ZZM  20 5
M  ZZI  20 1
M  ZZM  21 5
M  ZZI  21 1
M  ZZM  22 5
M  ZZI  22 1
M  ZZM  23 5
M  ZZI  23 1
M  ZZM  24 5
M  ZZI  24 1
M  ZZM  25 28
M  ZZI  25 11
M  ZZM  26 5
M  ZZI  26 1
M  ZZM  27 5
M  ZZI  27 1
M  ZZM  28 5
M  ZZI  28 1
M  ZZM  29 5
M  ZZI  29 1
M  END
> <IX>
1

> <NAME>
Cereblon_2VTI_20.pdb

> <Score>
-19.280105

> <Natom>
29

> <Nflex>
1

> <Hbond>
-3.303387

> <Hphob>
-3.565556

> <VwInt>
-22.802638

> <Dsolv>
12.072675

> <SolEl>
5.639926

> <Eintl>
1.486947

> <RecConf>
ND

> <projPath>
Cereblon_maps/

> <NAME_>
Cereblon_2VTI_20.pdb

$$$$
