Cereblon_6Z45_11.pdb
  MOLSOFT 04032206303D

 29 31  0  0  1  0  0  0  0  0999 V2000
   79.0044   42.4923   42.6707 C   0  0  0  0  0  0  0  0  0  0  0  0
   78.1851   42.1971   41.5953 C   0  0  0  0  0  0  0  0  0  0  0  0
   77.2675   41.0787   41.4108 C   0  0  0  0  0  0  0  0  0  0  0  0
   77.0864   40.2193   42.2595 O   0  0  0  0  0  0  0  0  0  0  0  0
   76.7265   41.2202   40.1459 N   0  0  0  0  0  0  0  0  0  0  0  0
   77.2220   42.3472   39.5222 C   0  0  0  0  0  0  0  0  0  0  0  0
   76.9870   42.7650   38.3958 O   0  0  0  0  0  0  0  0  0  0  0  0
   78.1575   42.9593   40.4664 C   0  0  0  0  0  0  0  0  0  0  0  0
   78.9565   44.0754   40.3230 C   0  0  0  0  0  0  0  0  0  0  0  0
   79.7993   44.3855   41.3841 C   0  0  0  0  0  0  0  0  0  0  0  0
   79.8237   43.6077   42.5430 C   0  0  0  0  0  0  0  0  0  0  0  0
   75.7191   40.3641   39.5139 C   0  0  2  0  0  0  0  0  0  0  0  0
   74.3392   40.9315   39.8043 C   0  0  0  0  0  0  0  0  0  0  0  0
   74.1501   42.1172   40.0200 O   0  0  0  0  0  0  0  0  0  0  0  0
   73.2896   40.0487   39.7283 N   0  0  0  0  0  0  0  0  0  0  0  0
   73.3291   38.7028   39.4589 C   0  0  0  0  0  0  0  0  0  0  0  0
   72.3142   38.0276   39.4068 O   0  0  0  0  0  0  0  0  0  0  0  0
   74.6938   38.1228   39.1790 C   0  0  0  0  0  0  0  0  0  0  0  0
   75.7759   38.8936   39.9149 C   0  0  0  0  0  0  0  0  0  0  0  0
   79.0161   41.8770   43.5662 H   0  0  0  0  0  0  0  0  0  0  0  0
   78.9266   44.6751   39.4217 H   0  0  0  0  0  0  0  0  0  0  0  0
   80.4479   45.2512   41.3132 H   0  0  0  0  0  0  0  0  0  0  0  0
   80.4915   43.8759   43.3569 H   0  0  0  0  0  0  0  0  0  0  0  0
   75.8558   40.4533   38.4342 H   0  0  0  0  0  0  0  0  0  0  0  0
   72.3712   40.4416   39.8934 H   0  0  0  0  0  0  0  0  0  0  0  0
   74.7024   37.0775   39.5028 H   0  0  0  0  0  0  0  0  0  0  0  0
   74.8535   38.1460   38.0966 H   0  0  0  0  0  0  0  0  0  0  0  0
   75.6144   38.7734   40.9899 H   0  0  0  0  0  0  0  0  0  0  0  0
   76.7614   38.4734   39.6902 H   0  0  0  0  0  0  0  0  0  0  0  0
  1 20  1  0  0  0  0
  1  2  1  0  0  0  0
  1 11  2  0  0  0  0
  2  3  1  0  0  0  0
  2  8  2  0  0  0  0
  3  4  2  0  0  0  0
  3  5  1  0  0  0  0
  5  6  1  0  0  0  0
 12  5  1  0  0  0  0
  6  7  2  0  0  0  0
  6  8  1  0  0  0  0
  8  9  1  0  0  0  0
  9 21  1  0  0  0  0
  9 10  2  0  0  0  0
 10 22  1  0  0  0  0
 10 11  1  0  0  0  0
 11 23  1  0  0  0  0
 12 24  1  0  0  0  0
 12 13  1  0  0  0  0
 12 19  1  0  0  0  0
 13 14  2  0  0  0  0
 13 15  1  0  0  0  0
 15 25  1  0  0  0  0
 15 16  1  0  0  0  0
 16 17  2  0  0  0  0
 16 18  1  0  0  0  0
 18 26  1  0  0  0  0
 18 27  1  0  0  0  0
 18 19  1  0  0  0  0
 19 28  1  0  0  0  0
 19 29  1  0  0  0  0
M  ZZC   1 c1
M  ZZC   2 c2
M  ZZC   3 c3
M  ZZC   4 o1
M  ZZC   5 n1
M  ZZC   6 c4
M  ZZC   7 o2
M  ZZC   8 c5
M  ZZC   9 c6
M  ZZC  10 c7
M  ZZC  11 c8
M  ZZC  12 c9
M  ZZC  13 c10
M  ZZC  14 o3
M  ZZC  15 n2
M  ZZC  16 c11
M  ZZC  17 o4
M  ZZC  18 c12
M  ZZC  19 c13
M  ZZC  20 h11
M  ZZC  21 h61
M  ZZC  22 h71
M  ZZC  23 h81
M  ZZC  24 h91
M  ZZC  25 h21
M  ZZC  26 h121
M  ZZC  27 h122
M  ZZC  28 h131
M  ZZC  29 h132
M  ZZM   1 37
M  ZZI   1 125
M  ZZM   2 37
M  ZZI   2 124
M  ZZM   3 3
M  ZZI   3 121
M  ZZM   4 7
M  ZZI   4 81
M  ZZM   5 10
M  ZZI   5 192
M  ZZM   6 3
M  ZZI   6 121
M  ZZM   7 7
M  ZZI   7 81
M  ZZM   8 37
M  ZZI   8 124
M  ZZM   9 37
M  ZZI   9 125
M  ZZM  10 37
M  ZZI  10 125
M  ZZM  11 37
M  ZZI  11 125
M  ZZM  12 1
M  ZZI  12 113
M  ZZM  13 3
M  ZZI  13 121
M  ZZM  14 7
M  ZZI  14 81
M  ZZM  15 10
M  ZZI  15 191
M  ZZM  16 3
M  ZZI  16 121
M  ZZM  17 7
M  ZZI  17 81
M  ZZM  18 1
M  ZZI  18 112
M  ZZM  19 1
M  ZZI  19 112
M  ZZM  20 5
M  ZZI  20 1
M  ZZM  21 5
M  ZZI  21 1
M  ZZM  22 5
M  ZZI  22 1
M  ZZM  23 5
M  ZZI  23 1
M  ZZM  24 5
M  ZZI  24 1
M  ZZM  25 28
M  ZZI  25 11
M  ZZM  26 5
M  ZZI  26 1
M  ZZM  27 5
M  ZZI  27 1
M  ZZM  28 5
M  ZZI  28 1
M  ZZM  29 5
M  ZZI  29 1
M  END
> <IX>
1

> <NAME>
Cereblon_6Z45_11.pdb

> <Score>
-19.429613

> <Natom>
29

> <Nflex>
1

> <Hbond>
-3.369319

> <Hphob>
-3.582039

> <VwInt>
-22.692984

> <Dsolv>
11.993841

> <SolEl>
5.625738

> <Eintl>
1.465578

> <RecConf>
ND

> <projPath>
Cereblon_maps/

> <NAME_>
Cereblon_6Z45_11.pdb

$$$$
