Cereblon_5VBP_9.pdb
  MOLSOFT 04032206283D

 29 31  0  0  1  0  0  0  0  0999 V2000
   76.3132   40.4924   40.6518 C   0  0  0  0  0  0  0  0  0  0  0  0
   75.3239   40.2841   39.7081 C   0  0  0  0  0  0  0  0  0  0  0  0
   74.4516   41.2483   39.0443 C   0  0  0  0  0  0  0  0  0  0  0  0
   74.4428   42.4331   39.3406 O   0  0  0  0  0  0  0  0  0  0  0  0
   73.6901   40.5332   38.1373 N   0  0  0  0  0  0  0  0  0  0  0  0
   73.9560   39.1823   38.2444 C   0  0  0  0  0  0  0  0  0  0  0  0
   73.4510   38.2410   37.6503 O   0  0  0  0  0  0  0  0  0  0  0  0
   75.0135   39.0437   39.2444 C   0  0  0  0  0  0  0  0  0  0  0  0
   75.6602   37.9094   39.7001 C   0  0  0  0  0  0  0  0  0  0  0  0
   76.6574   38.0939   40.6518 C   0  0  0  0  0  0  0  0  0  0  0  0
   76.9804   39.3676   41.1206 C   0  0  0  0  0  0  0  0  0  0  0  0
   72.6594   41.0712   37.2368 C   0  0  1  0  0  0  0  0  0  0  0  0
   71.3524   41.2748   37.9967 C   0  0  0  0  0  0  0  0  0  0  0  0
   71.0408   40.6202   38.9809 O   0  0  0  0  0  0  0  0  0  0  0  0
   70.4812   42.1941   37.4582 N   0  0  0  0  0  0  0  0  0  0  0  0
   70.6711   43.0421   36.3988 C   0  0  0  0  0  0  0  0  0  0  0  0
   69.8457   43.8965   36.1135 O   0  0  0  0  0  0  0  0  0  0  0  0
   71.9417   42.8317   35.6145 C   0  0  0  0  0  0  0  0  0  0  0  0
   73.0707   42.3518   36.5130 C   0  0  0  0  0  0  0  0  0  0  0  0
   76.5675   41.4865   41.0059 H   0  0  0  0  0  0  0  0  0  0  0  0
   75.4076   36.9212   39.3272 H   0  0  0  0  0  0  0  0  0  0  0  0
   77.1955   37.2326   41.0355 H   0  0  0  0  0  0  0  0  0  0  0  0
   77.7641   39.4836   41.8635 H   0  0  0  0  0  0  0  0  0  0  0  0
   72.4488   40.3004   36.4862 H   0  0  0  0  0  0  0  0  0  0  0  0
   69.6113   42.3232   37.9537 H   0  0  0  0  0  0  0  0  0  0  0  0
   71.7392   42.1124   34.8137 H   0  0  0  0  0  0  0  0  0  0  0  0
   72.2166   43.7839   35.1567 H   0  0  0  0  0  0  0  0  0  0  0  0
   73.3164   43.1445   37.2247 H   0  0  0  0  0  0  0  0  0  0  0  0
   73.9729   42.1775   35.9181 H   0  0  0  0  0  0  0  0  0  0  0  0
  1 20  1  0  0  0  0
  1  2  1  0  0  0  0
  1 11  2  0  0  0  0
  2  3  1  0  0  0  0
  2  8  2  0  0  0  0
  3  4  2  0  0  0  0
  3  5  1  0  0  0  0
  5  6  1  0  0  0  0
 12  5  1  0  0  0  0
  6  7  2  0  0  0  0
  6  8  1  0  0  0  0
  8  9  1  0  0  0  0
  9 21  1  0  0  0  0
  9 10  2  0  0  0  0
 10 22  1  0  0  0  0
 10 11  1  0  0  0  0
 11 23  1  0  0  0  0
 12 24  1  0  0  0  0
 12 13  1  0  0  0  0
 12 19  1  0  0  0  0
 13 14  2  0  0  0  0
 13 15  1  0  0  0  0
 15 25  1  0  0  0  0
 15 16  1  0  0  0  0
 16 17  2  0  0  0  0
 16 18  1  0  0  0  0
 18 26  1  0  0  0  0
 18 27  1  0  0  0  0
 18 19  1  0  0  0  0
 19 28  1  0  0  0  0
 19 29  1  0  0  0  0
M  ZZC   1 c1
M  ZZC   2 c2
M  ZZC   3 c3
M  ZZC   4 o1
M  ZZC   5 n1
M  ZZC   6 c4
M  ZZC   7 o2
M  ZZC   8 c5
M  ZZC   9 c6
M  ZZC  10 c7
M  ZZC  11 c8
M  ZZC  12 c9
M  ZZC  13 c10
M  ZZC  14 o3
M  ZZC  15 n2
M  ZZC  16 c11
M  ZZC  17 o4
M  ZZC  18 c12
M  ZZC  19 c13
M  ZZC  20 h11
M  ZZC  21 h61
M  ZZC  22 h71
M  ZZC  23 h81
M  ZZC  24 h91
M  ZZC  25 h21
M  ZZC  26 h121
M  ZZC  27 h122
M  ZZC  28 h131
M  ZZC  29 h132
M  ZZM   1 37
M  ZZI   1 125
M  ZZM   2 37
M  ZZI   2 124
M  ZZM   3 3
M  ZZI   3 121
M  ZZM   4 7
M  ZZI   4 81
M  ZZM   5 10
M  ZZI   5 192
M  ZZM   6 3
M  ZZI   6 121
M  ZZM   7 7
M  ZZI   7 81
M  ZZM   8 37
M  ZZI   8 124
M  ZZM   9 37
M  ZZI   9 125
M  ZZM  10 37
M  ZZI  10 125
M  ZZM  11 37
M  ZZI  11 125
M  ZZM  12 1
M  ZZI  12 113
M  ZZM  13 3
M  ZZI  13 121
M  ZZM  14 7
M  ZZI  14 81
M  ZZM  15 10
M  ZZI  15 191
M  ZZM  16 3
M  ZZI  16 121
M  ZZM  17 7
M  ZZI  17 81
M  ZZM  18 1
M  ZZI  18 112
M  ZZM  19 1
M  ZZI  19 112
M  ZZM  20 5
M  ZZI  20 1
M  ZZM  21 5
M  ZZI  21 1
M  ZZM  22 5
M  ZZI  22 1
M  ZZM  23 5
M  ZZI  23 1
M  ZZM  24 5
M  ZZI  24 1
M  ZZM  25 28
M  ZZI  25 11
M  ZZM  26 5
M  ZZI  26 1
M  ZZM  27 5
M  ZZI  27 1
M  ZZM  28 5
M  ZZI  28 1
M  ZZM  29 5
M  ZZI  29 1
M  END
> <IX>
1

> <NAME>
Cereblon_5VBP_9.pdb

> <Score>
-20.69179

> <Natom>
29

> <Nflex>
1

> <Hbond>
-4.576288

> <Hphob>
-3.529656

> <VwInt>
-22.316657

> <Dsolv>
13.464813

> <SolEl>
6.85446

> <Eintl>
0.575316

> <RecConf>
ND

> <projPath>
Cereblon_maps/

> <NAME_>
Cereblon_5VBP_9.pdb

$$$$
