Cereblon_4MXO_3.pdb
  MOLSOFT 04032206233D

 31 33  0  0  1  0  0  0  0  0999 V2000
   81.6212   53.0766   19.7062 N   0  0  0  0  0  0  0  0  0  0  0  0
   81.9338   54.4417   19.7380 C   0  0  0  0  0  0  0  0  0  0  0  0
   81.2319   55.3381   20.5258 C   0  0  0  0  0  0  0  0  0  0  0  0
   80.0307   55.1244   21.3283 C   0  0  0  0  0  0  0  0  0  0  0  0
   79.4243   54.0646   21.4018 O   0  0  0  0  0  0  0  0  0  0  0  0
   79.7606   56.3263   21.9457 N   0  0  0  0  0  0  0  0  0  0  0  0
   80.6732   57.2926   21.5765 C   0  0  0  0  0  0  0  0  0  0  0  0
   80.7463   58.4691   21.8997 O   0  0  0  0  0  0  0  0  0  0  0  0
   81.6120   56.6385   20.6681 C   0  0  0  0  0  0  0  0  0  0  0  0
   82.7287   57.1516   20.0353 C   0  0  0  0  0  0  0  0  0  0  0  0
   83.4615   56.2692   19.2519 C   0  0  0  0  0  0  0  0  0  0  0  0
   83.0798   54.9326   19.1254 C   0  0  0  0  0  0  0  0  0  0  0  0
   78.6174   56.5117   22.8390 C   0  0  2  0  0  0  0  0  0  0  0  0
   77.4676   57.1882   22.1171 C   0  0  0  0  0  0  0  0  0  0  0  0
   77.3324   57.1802   20.9025 O   0  0  0  0  0  0  0  0  0  0  0  0
   76.5175   57.7381   22.9448 N   0  0  0  0  0  0  0  0  0  0  0  0
   76.4989   57.7901   24.3181 C   0  0  0  0  0  0  0  0  0  0  0  0
   75.5318   58.2113   24.9318 O   0  0  0  0  0  0  0  0  0  0  0  0
   77.7204   57.2478   25.0223 C   0  0  0  0  0  0  0  0  0  0  0  0
   78.9343   57.2857   24.1145 C   0  0  0  0  0  0  0  0  0  0  0  0
   82.0408   52.5282   18.9606 H   0  0  0  0  0  0  0  0  0  0  0  0
   80.6536   52.8423   19.9271 H   0  0  0  0  0  0  0  0  0  0  0  0
   83.0273   58.1886   20.1547 H   0  0  0  0  0  0  0  0  0  0  0  0
   84.3553   56.6196   18.7428 H   0  0  0  0  0  0  0  0  0  0  0  0
   83.6902   54.2592   18.5323 H   0  0  0  0  0  0  0  0  0  0  0  0
   78.2510   55.5148   23.0993 H   0  0  0  0  0  0  0  0  0  0  0  0
   75.7243   58.1584   22.4792 H   0  0  0  0  0  0  0  0  0  0  0  0
   77.9069   57.8461   25.9198 H   0  0  0  0  0  0  0  0  0  0  0  0
   77.5099   56.2221   25.3346 H   0  0  0  0  0  0  0  0  0  0  0  0
   79.1864   58.3280   23.8917 H   0  0  0  0  0  0  0  0  0  0  0  0
   79.7972   56.8525   24.6284 H   0  0  0  0  0  0  0  0  0  0  0  0
  1  2  1  0  0  0  0
  1 21  1  0  0  0  0
  1 22  1  0  0  0  0
  2  3  1  0  0  0  0
  2 12  2  0  0  0  0
  3  9  2  0  0  0  0
  3  4  1  0  0  0  0
  4  5  2  0  0  0  0
  4  6  1  0  0  0  0
  6  7  1  0  0  0  0
 13  6  1  0  0  0  0
  7  8  2  0  0  0  0
  7  9  1  0  0  0  0
  9 10  1  0  0  0  0
 10 23  1  0  0  0  0
 10 11  2  0  0  0  0
 11 12  1  0  0  0  0
 11 24  1  0  0  0  0
 12 25  1  0  0  0  0
 13 26  1  0  0  0  0
 13 14  1  0  0  0  0
 13 20  1  0  0  0  0
 14 15  2  0  0  0  0
 14 16  1  0  0  0  0
 16 27  1  0  0  0  0
 16 17  1  0  0  0  0
 17 18  2  0  0  0  0
 17 19  1  0  0  0  0
 19 28  1  0  0  0  0
 19 29  1  0  0  0  0
 19 20  1  0  0  0  0
 20 30  1  0  0  0  0
 20 31  1  0  0  0  0
M  ZZC   1 n1
M  ZZC   2 c1
M  ZZC   3 c2
M  ZZC   4 c3
M  ZZC   5 o1
M  ZZC   6 n2
M  ZZC   7 c4
M  ZZC   8 o2
M  ZZC   9 c5
M  ZZC  10 c6
M  ZZC  11 c7
M  ZZC  12 c8
M  ZZC  13 c9
M  ZZC  14 c10
M  ZZC  15 o3
M  ZZC  16 n3
M  ZZC  17 c11
M  ZZC  18 o4
M  ZZC  19 c12
M  ZZC  20 c13
M  ZZC  21 h11
M  ZZC  22 h12
M  ZZC  23 h61
M  ZZC  24 h71
M  ZZC  25 h81
M  ZZC  26 h91
M  ZZC  27 h31
M  ZZC  28 h121
M  ZZC  29 h122
M  ZZC  30 h131
M  ZZC  31 h132
M  ZZM   1 40
M  ZZI   1 224
M  ZZM   2 37
M  ZZI   2 124
M  ZZM   3 37
M  ZZI   3 124
M  ZZM   4 3
M  ZZI   4 121
M  ZZM   5 7
M  ZZI   5 81
M  ZZM   6 10
M  ZZI   6 192
M  ZZM   7 3
M  ZZI   7 121
M  ZZM   8 7
M  ZZI   8 81
M  ZZM   9 37
M  ZZI   9 124
M  ZZM  10 37
M  ZZI  10 125
M  ZZM  11 37
M  ZZI  11 125
M  ZZM  12 37
M  ZZI  12 125
M  ZZM  13 1
M  ZZI  13 113
M  ZZM  14 3
M  ZZI  14 121
M  ZZM  15 7
M  ZZI  15 81
M  ZZM  16 10
M  ZZI  16 191
M  ZZM  17 3
M  ZZI  17 121
M  ZZM  18 7
M  ZZI  18 81
M  ZZM  19 1
M  ZZI  19 112
M  ZZM  20 1
M  ZZI  20 112
M  ZZM  21 28
M  ZZI  21 11
M  ZZM  22 28
M  ZZI  22 11
M  ZZM  23 5
M  ZZI  23 1
M  ZZM  24 5
M  ZZI  24 1
M  ZZM  25 5
M  ZZI  25 1
M  ZZM  26 5
M  ZZI  26 1
M  ZZM  27 28
M  ZZI  27 11
M  ZZM  28 5
M  ZZI  28 1
M  ZZM  29 5
M  ZZI  29 1
M  ZZM  30 5
M  ZZI  30 1
M  ZZM  31 5
M  ZZI  31 1
M  END
> <IX>
1

> <NAME>
Cereblon_4MXO_3.pdb

> <Score>
-23.195514

> <Natom>
31

> <Nflex>
1

> <Hbond>
-4.457711

> <Hphob>
-3.29811

> <VwInt>
-24.594146

> <Dsolv>
13.953657

> <SolEl>
5.086473

> <Eintl>
0.773433

> <RecConf>
ND

> <projPath>
Cereblon_maps/

> <NAME_>
Cereblon_4MXO_3.pdb

$$$$
