Cereblon_6Z45_13.pdb
  MOLSOFT 04032206303D

 29 31  0  0  1  0  0  0  0  0999 V2000
   78.9973   42.4839   42.6774 C   0  0  0  0  0  0  0  0  0  0  0  0
   78.1848   42.1881   41.5974 C   0  0  0  0  0  0  0  0  0  0  0  0
   77.2680   41.0703   41.4082 C   0  0  0  0  0  0  0  0  0  0  0  0
   77.0861   40.2087   42.2546 O   0  0  0  0  0  0  0  0  0  0  0  0
   76.7275   41.2154   40.1438 N   0  0  0  0  0  0  0  0  0  0  0  0
   77.2237   42.3445   39.5240 C   0  0  0  0  0  0  0  0  0  0  0  0
   76.9882   42.7664   38.3991 O   0  0  0  0  0  0  0  0  0  0  0  0
   78.1576   42.9544   40.4711 C   0  0  0  0  0  0  0  0  0  0  0  0
   78.9527   44.0741   40.3345 C   0  0  0  0  0  0  0  0  0  0  0  0
   79.7910   44.3835   41.4000 C   0  0  0  0  0  0  0  0  0  0  0  0
   79.8133   43.6025   42.5562 C   0  0  0  0  0  0  0  0  0  0  0  0
   75.7157   40.3657   39.5100 C   0  0  2  0  0  0  0  0  0  0  0  0
   74.3373   40.9383   39.7984 C   0  0  0  0  0  0  0  0  0  0  0  0
   74.1545   42.1247   40.0153 O   0  0  0  0  0  0  0  0  0  0  0  0
   73.2837   40.0610   39.7173 N   0  0  0  0  0  0  0  0  0  0  0  0
   73.3177   38.7159   39.4411 C   0  0  0  0  0  0  0  0  0  0  0  0
   72.3003   38.0458   39.3759 O   0  0  0  0  0  0  0  0  0  0  0  0
   74.6817   38.1295   39.1696 C   0  0  0  0  0  0  0  0  0  0  0  0
   75.7644   38.8948   39.9102 C   0  0  0  0  0  0  0  0  0  0  0  0
   79.0086   41.8650   43.5704 H   0  0  0  0  0  0  0  0  0  0  0  0
   78.9207   44.6792   39.4363 H   0  0  0  0  0  0  0  0  0  0  0  0
   80.4342   45.2535   41.3358 H   0  0  0  0  0  0  0  0  0  0  0  0
   80.4761   43.8719   43.3736 H   0  0  0  0  0  0  0  0  0  0  0  0
   75.8557   40.4548   38.4308 H   0  0  0  0  0  0  0  0  0  0  0  0
   72.3663   40.4582   39.8777 H   0  0  0  0  0  0  0  0  0  0  0  0
   74.6828   37.0837   39.4931 H   0  0  0  0  0  0  0  0  0  0  0  0
   74.8467   38.1509   38.0880 H   0  0  0  0  0  0  0  0  0  0  0  0
   76.7494   38.4708   39.6894 H   0  0  0  0  0  0  0  0  0  0  0  0
   75.5973   38.7759   40.9844 H   0  0  0  0  0  0  0  0  0  0  0  0
  1 20  1  0  0  0  0
  1  2  1  0  0  0  0
  1 11  2  0  0  0  0
  2  3  1  0  0  0  0
  2  8  2  0  0  0  0
  3  4  2  0  0  0  0
  3  5  1  0  0  0  0
  5  6  1  0  0  0  0
 12  5  1  0  0  0  0
  6  7  2  0  0  0  0
  6  8  1  0  0  0  0
  8  9  1  0  0  0  0
  9 21  1  0  0  0  0
  9 10  2  0  0  0  0
 10 22  1  0  0  0  0
 10 11  1  0  0  0  0
 11 23  1  0  0  0  0
 12 24  1  0  0  0  0
 12 13  1  0  0  0  0
 12 19  1  0  0  0  0
 13 14  2  0  0  0  0
 13 15  1  0  0  0  0
 15 25  1  0  0  0  0
 15 16  1  0  0  0  0
 16 17  2  0  0  0  0
 16 18  1  0  0  0  0
 18 26  1  0  0  0  0
 18 27  1  0  0  0  0
 18 19  1  0  0  0  0
 19 28  1  0  0  0  0
 19 29  1  0  0  0  0
M  ZZC   1 c1
M  ZZC   2 c2
M  ZZC   3 c3
M  ZZC   4 o1
M  ZZC   5 n1
M  ZZC   6 c4
M  ZZC   7 o2
M  ZZC   8 c5
M  ZZC   9 c6
M  ZZC  10 c7
M  ZZC  11 c8
M  ZZC  12 c9
M  ZZC  13 c10
M  ZZC  14 o3
M  ZZC  15 n2
M  ZZC  16 c11
M  ZZC  17 o4
M  ZZC  18 c12
M  ZZC  19 c13
M  ZZC  20 h11
M  ZZC  21 h61
M  ZZC  22 h71
M  ZZC  23 h81
M  ZZC  24 h91
M  ZZC  25 h21
M  ZZC  26 h121
M  ZZC  27 h122
M  ZZC  28 h131
M  ZZC  29 h132
M  ZZM   1 37
M  ZZI   1 125
M  ZZM   2 37
M  ZZI   2 124
M  ZZM   3 3
M  ZZI   3 121
M  ZZM   4 7
M  ZZI   4 81
M  ZZM   5 10
M  ZZI   5 192
M  ZZM   6 3
M  ZZI   6 121
M  ZZM   7 7
M  ZZI   7 81
M  ZZM   8 37
M  ZZI   8 124
M  ZZM   9 37
M  ZZI   9 125
M  ZZM  10 37
M  ZZI  10 125
M  ZZM  11 37
M  ZZI  11 125
M  ZZM  12 1
M  ZZI  12 113
M  ZZM  13 3
M  ZZI  13 121
M  ZZM  14 7
M  ZZI  14 81
M  ZZM  15 10
M  ZZI  15 191
M  ZZM  16 3
M  ZZI  16 121
M  ZZM  17 7
M  ZZI  17 81
M  ZZM  18 1
M  ZZI  18 112
M  ZZM  19 1
M  ZZI  19 112
M  ZZM  20 5
M  ZZI  20 1
M  ZZM  21 5
M  ZZI  21 1
M  ZZM  22 5
M  ZZI  22 1
M  ZZM  23 5
M  ZZI  23 1
M  ZZM  24 5
M  ZZI  24 1
M  ZZM  25 28
M  ZZI  25 11
M  ZZM  26 5
M  ZZI  26 1
M  ZZM  27 5
M  ZZI  27 1
M  ZZM  28 5
M  ZZI  28 1
M  ZZM  29 5
M  ZZI  29 1
M  END
> <IX>
1

> <NAME>
Cereblon_6Z45_13.pdb

> <Score>
-19.317047

> <Natom>
29

> <Nflex>
1

> <Hbond>
-3.363957

> <Hphob>
-3.575593

> <VwInt>
-22.670637

> <Dsolv>
12.069686

> <SolEl>
5.641046

> <Eintl>
1.474488

> <RecConf>
ND

> <projPath>
Cereblon_maps/

> <NAME_>
Cereblon_6Z45_13.pdb

$$$$
