Cereblon_5L2T_6.pdb
  MOLSOFT 04032206263D

 31 33  0  0  1  0  0  0  0  0999 V2000
   78.8151   41.6753   43.8096 N   0  0  0  0  0  0  0  0  0  0  0  0
   78.8956   42.4303   42.6295 C   0  0  0  0  0  0  0  0  0  0  0  0
   78.0939   42.1606   41.5337 C   0  0  0  0  0  0  0  0  0  0  0  0
   77.1728   41.0504   41.3269 C   0  0  0  0  0  0  0  0  0  0  0  0
   76.9916   40.1687   42.1536 O   0  0  0  0  0  0  0  0  0  0  0  0
   76.6370   41.2146   40.0651 N   0  0  0  0  0  0  0  0  0  0  0  0
   77.1610   42.3330   39.4498 C   0  0  0  0  0  0  0  0  0  0  0  0
   76.9530   42.7514   38.3183 O   0  0  0  0  0  0  0  0  0  0  0  0
   78.0915   42.9289   40.4091 C   0  0  0  0  0  0  0  0  0  0  0  0
   78.9048   44.0368   40.2871 C   0  0  0  0  0  0  0  0  0  0  0  0
   79.7236   44.3353   41.3703 C   0  0  0  0  0  0  0  0  0  0  0  0
   79.7103   43.5536   42.5272 C   0  0  0  0  0  0  0  0  0  0  0  0
   75.6193   40.3767   39.4273 C   0  0  2  0  0  0  0  0  0  0  0  0
   74.2482   40.9578   39.7273 C   0  0  0  0  0  0  0  0  0  0  0  0
   74.0795   42.1374   39.9879 O   0  0  0  0  0  0  0  0  0  0  0  0
   73.1862   40.0959   39.6036 N   0  0  0  0  0  0  0  0  0  0  0  0
   73.2100   38.7586   39.2900 C   0  0  0  0  0  0  0  0  0  0  0  0
   72.1837   38.1098   39.1691 O   0  0  0  0  0  0  0  0  0  0  0  0
   74.5734   38.1533   39.0537 C   0  0  0  0  0  0  0  0  0  0  0  0
   75.6495   38.9031   39.8189 C   0  0  0  0  0  0  0  0  0  0  0  0
   79.5354   41.7702   44.5226 H   0  0  0  0  0  0  0  0  0  0  0  0
   78.2722   40.8102   43.7944 H   0  0  0  0  0  0  0  0  0  0  0  0
   78.8979   44.6427   39.3887 H   0  0  0  0  0  0  0  0  0  0  0  0
   80.3766   45.1996   41.3232 H   0  0  0  0  0  0  0  0  0  0  0  0
   80.3472   43.8315   43.3615 H   0  0  0  0  0  0  0  0  0  0  0  0
   75.7564   40.4743   38.3491 H   0  0  0  0  0  0  0  0  0  0  0  0
   72.2706   40.5003   39.7564 H   0  0  0  0  0  0  0  0  0  0  0  0
   74.5516   37.1079   39.3775 H   0  0  0  0  0  0  0  0  0  0  0  0
   74.7692   38.1700   37.9770 H   0  0  0  0  0  0  0  0  0  0  0  0
   75.4617   38.7771   40.8891 H   0  0  0  0  0  0  0  0  0  0  0  0
   76.6346   38.4712   39.6150 H   0  0  0  0  0  0  0  0  0  0  0  0
  1  2  1  0  0  0  0
  1 21  1  0  0  0  0
  1 22  1  0  0  0  0
  2  3  1  0  0  0  0
  2 12  2  0  0  0  0
  3  9  2  0  0  0  0
  3  4  1  0  0  0  0
  4  5  2  0  0  0  0
  4  6  1  0  0  0  0
  6  7  1  0  0  0  0
 13  6  1  0  0  0  0
  7  8  2  0  0  0  0
  7  9  1  0  0  0  0
  9 10  1  0  0  0  0
 10 23  1  0  0  0  0
 10 11  2  0  0  0  0
 11 12  1  0  0  0  0
 11 24  1  0  0  0  0
 12 25  1  0  0  0  0
 13 26  1  0  0  0  0
 13 14  1  0  0  0  0
 13 20  1  0  0  0  0
 14 15  2  0  0  0  0
 14 16  1  0  0  0  0
 16 27  1  0  0  0  0
 16 17  1  0  0  0  0
 17 18  2  0  0  0  0
 17 19  1  0  0  0  0
 19 28  1  0  0  0  0
 19 29  1  0  0  0  0
 19 20  1  0  0  0  0
 20 30  1  0  0  0  0
 20 31  1  0  0  0  0
M  ZZC   1 n1
M  ZZC   2 c1
M  ZZC   3 c2
M  ZZC   4 c3
M  ZZC   5 o1
M  ZZC   6 n2
M  ZZC   7 c4
M  ZZC   8 o2
M  ZZC   9 c5
M  ZZC  10 c6
M  ZZC  11 c7
M  ZZC  12 c8
M  ZZC  13 c9
M  ZZC  14 c10
M  ZZC  15 o3
M  ZZC  16 n3
M  ZZC  17 c11
M  ZZC  18 o4
M  ZZC  19 c12
M  ZZC  20 c13
M  ZZC  21 h11
M  ZZC  22 h12
M  ZZC  23 h61
M  ZZC  24 h71
M  ZZC  25 h81
M  ZZC  26 h91
M  ZZC  27 h31
M  ZZC  28 h121
M  ZZC  29 h122
M  ZZC  30 h131
M  ZZC  31 h132
M  ZZM   1 40
M  ZZI   1 224
M  ZZM   2 37
M  ZZI   2 124
M  ZZM   3 37
M  ZZI   3 124
M  ZZM   4 3
M  ZZI   4 121
M  ZZM   5 7
M  ZZI   5 81
M  ZZM   6 10
M  ZZI   6 192
M  ZZM   7 3
M  ZZI   7 121
M  ZZM   8 7
M  ZZI   8 81
M  ZZM   9 37
M  ZZI   9 124
M  ZZM  10 37
M  ZZI  10 125
M  ZZM  11 37
M  ZZI  11 125
M  ZZM  12 37
M  ZZI  12 125
M  ZZM  13 1
M  ZZI  13 113
M  ZZM  14 3
M  ZZI  14 121
M  ZZM  15 7
M  ZZI  15 81
M  ZZM  16 10
M  ZZI  16 191
M  ZZM  17 3
M  ZZI  17 121
M  ZZM  18 7
M  ZZI  18 81
M  ZZM  19 1
M  ZZI  19 112
M  ZZM  20 1
M  ZZI  20 112
M  ZZM  21 28
M  ZZI  21 11
M  ZZM  22 28
M  ZZI  22 11
M  ZZM  23 5
M  ZZI  23 1
M  ZZM  24 5
M  ZZI  24 1
M  ZZM  25 5
M  ZZI  25 1
M  ZZM  26 5
M  ZZI  26 1
M  ZZM  27 28
M  ZZI  27 11
M  ZZM  28 5
M  ZZI  28 1
M  ZZM  29 5
M  ZZI  29 1
M  ZZM  30 5
M  ZZI  30 1
M  ZZM  31 5
M  ZZI  31 1
M  END
> <IX>
1

> <NAME>
Cereblon_5L2T_6.pdb

> <Score>
-18.461213

> <Natom>
31

> <Nflex>
1

> <Hbond>
-3.698969

> <Hphob>
-3.576795

> <VwInt>
-24.259314

> <Dsolv>
15.359222

> <SolEl>
6.660539

> <Eintl>
1.729289

> <RecConf>
ND

> <projPath>
Cereblon_maps/

> <NAME_>
Cereblon_5L2T_6.pdb

$$$$
