Cereblon_3MXF_12.pdb
  MOLSOFT 04032206213D

 30 32  0  0  1  0  0  0  0  0999 V2000
   78.9596   42.3493   42.8102 C   0  0  0  0  0  0  0  0  0  0  0  0
   78.1543   42.0558   41.7224 C   0  0  0  0  0  0  0  0  0  0  0  0
   78.1619   42.8617   40.6147 C   0  0  0  0  0  0  0  0  0  0  0  0
   77.2323   42.3010   39.6266 C   0  0  0  0  0  0  0  0  0  0  0  0
   77.0149   42.7670   38.5159 O   0  0  0  0  0  0  0  0  0  0  0  0
   76.7074   41.1564   40.1950 N   0  0  0  0  0  0  0  0  0  0  0  0
   75.6926   40.3302   39.5360 C   0  0  2  0  0  0  0  0  0  0  0  0
   74.3099   40.9157   39.7954 C   0  0  0  0  0  0  0  0  0  0  0  0
   74.1234   42.1035   40.0018 O   0  0  0  0  0  0  0  0  0  0  0  0
   73.2544   40.0410   39.7111 N   0  0  0  0  0  0  0  0  0  0  0  0
   73.2849   38.6922   39.4575 C   0  0  0  0  0  0  0  0  0  0  0  0
   72.2644   38.0261   39.3955 O   0  0  0  0  0  0  0  0  0  0  0  0
   74.6477   38.0954   39.2073 C   0  0  0  0  0  0  0  0  0  0  0  0
   75.7300   38.8628   39.9452 C   0  0  0  0  0  0  0  0  0  0  0  0
   77.2300   40.9105   41.5292 C   0  0  0  0  0  0  0  0  0  0  0  0
   78.9673   43.9784   40.5071 C   0  0  0  0  0  0  0  0  0  0  0  0
   79.7878   44.2702   41.5878 C   0  0  0  0  0  0  0  0  0  0  0  0
   79.7829   43.4661   42.7256 C   0  0  0  0  0  0  0  0  0  0  0  0
   78.9594   41.7230   43.6977 H   0  0  0  0  0  0  0  0  0  0  0  0
   75.8574   40.4200   38.4600 H   0  0  0  0  0  0  0  0  0  0  0  0
   72.3373   40.4448   39.8552 H   0  0  0  0  0  0  0  0  0  0  0  0
   74.6403   37.0539   39.5440 H   0  0  0  0  0  0  0  0  0  0  0  0
   74.8249   38.1019   38.1272 H   0  0  0  0  0  0  0  0  0  0  0  0
   75.5737   38.7583   41.0237 H   0  0  0  0  0  0  0  0  0  0  0  0
   76.7118   38.4311   39.7246 H   0  0  0  0  0  0  0  0  0  0  0  0
   77.7715   39.9587   41.5429 H   0  0  0  0  0  0  0  0  0  0  0  0
   76.4203   40.9118   42.2618 H   0  0  0  0  0  0  0  0  0  0  0  0
   78.9558   44.5967   39.6169 H   0  0  0  0  0  0  0  0  0  0  0  0
   80.4351   45.1389   41.5492 H   0  0  0  0  0  0  0  0  0  0  0  0
   80.4329   43.7151   43.5593 H   0  0  0  0  0  0  0  0  0  0  0  0
  1 19  1  0  0  0  0
  1 18  2  0  0  0  0
  1  2  1  0  0  0  0
  2  3  2  0  0  0  0
  2 15  1  0  0  0  0
  3 16  1  0  0  0  0
  3  4  1  0  0  0  0
  4  6  1  0  0  0  0
  4  5  2  0  0  0  0
  6 15  1  0  0  0  0
  7  6  1  0  0  0  0
  7 20  1  0  0  0  0
  7  8  1  0  0  0  0
  7 14  1  0  0  0  0
  8  9  2  0  0  0  0
  8 10  1  0  0  0  0
 10 21  1  0  0  0  0
 10 11  1  0  0  0  0
 11 12  2  0  0  0  0
 11 13  1  0  0  0  0
 13 22  1  0  0  0  0
 13 23  1  0  0  0  0
 13 14  1  0  0  0  0
 14 24  1  0  0  0  0
 14 25  1  0  0  0  0
 15 26  1  0  0  0  0
 15 27  1  0  0  0  0
 16 17  2  0  0  0  0
 16 28  1  0  0  0  0
 17 18  1  0  0  0  0
 17 29  1  0  0  0  0
 18 30  1  0  0  0  0
M  ZZC   1 c1
M  ZZC   2 c2
M  ZZC   3 c3
M  ZZC   4 c4
M  ZZC   5 o1
M  ZZC   6 n1
M  ZZC   7 c5
M  ZZC   8 c6
M  ZZC   9 o2
M  ZZC  10 n2
M  ZZC  11 c7
M  ZZC  12 o3
M  ZZC  13 c8
M  ZZC  14 c9
M  ZZC  15 c10
M  ZZC  16 c11
M  ZZC  17 c12
M  ZZC  18 c13
M  ZZC  19 h11
M  ZZC  20 h51
M  ZZC  21 h21
M  ZZC  22 h81
M  ZZC  23 h82
M  ZZC  24 h91
M  ZZC  25 h92
M  ZZC  26 h101
M  ZZC  27 h102
M  ZZC  28 h111
M  ZZC  29 h121
M  ZZC  30 h131
M  ZZM   1 37
M  ZZI   1 125
M  ZZM   2 37
M  ZZI   2 124
M  ZZM   3 37
M  ZZI   3 124
M  ZZM   4 3
M  ZZI   4 121
M  ZZM   5 7
M  ZZI   5 81
M  ZZM   6 10
M  ZZI   6 192
M  ZZM   7 1
M  ZZI   7 113
M  ZZM   8 3
M  ZZI   8 121
M  ZZM   9 7
M  ZZI   9 81
M  ZZM  10 10
M  ZZI  10 191
M  ZZM  11 3
M  ZZI  11 121
M  ZZM  12 7
M  ZZI  12 81
M  ZZM  13 1
M  ZZI  13 112
M  ZZM  14 1
M  ZZI  14 112
M  ZZM  15 1
M  ZZI  15 112
M  ZZM  16 37
M  ZZI  16 125
M  ZZM  17 37
M  ZZI  17 125
M  ZZM  18 37
M  ZZI  18 125
M  ZZM  19 5
M  ZZI  19 1
M  ZZM  20 5
M  ZZI  20 1
M  ZZM  21 28
M  ZZI  21 11
M  ZZM  22 5
M  ZZI  22 1
M  ZZM  23 5
M  ZZI  23 1
M  ZZM  24 5
M  ZZI  24 1
M  ZZM  25 5
M  ZZI  25 1
M  ZZM  26 5
M  ZZI  26 1
M  ZZM  27 5
M  ZZI  27 1
M  ZZM  28 5
M  ZZI  28 1
M  ZZM  29 5
M  ZZI  29 1
M  ZZM  30 5
M  ZZI  30 1
M  END
> <IX>
1

> <NAME>
Cereblon_3MXF_12.pdb

> <Score>
-18.774738

> <Natom>
30

> <Nflex>
1

> <Hbond>
-3.272955

> <Hphob>
-3.898065

> <VwInt>
-21.053258

> <Dsolv>
10.94847

> <SolEl>
5.653196

> <Eintl>
1.047226

> <RecConf>
ND

> <projPath>
Cereblon_maps/

> <NAME_>
Cereblon_3MXF_12.pdb

$$$$
