Cereblon_3MXF_13.pdb
  MOLSOFT 04032206213D

 30 32  0  0  1  0  0  0  0  0999 V2000
   77.8456   41.3889   42.1564 C   0  0  0  0  0  0  0  0  0  0  0  0
   77.1588   41.3854   40.9518 C   0  0  0  0  0  0  0  0  0  0  0  0
   77.4151   42.3419   40.0073 C   0  0  0  0  0  0  0  0  0  0  0  0
   76.5302   42.1015   38.8605 C   0  0  0  0  0  0  0  0  0  0  0  0
   76.5285   42.7575   37.8283 O   0  0  0  0  0  0  0  0  0  0  0  0
   75.7188   41.0338   39.1984 N   0  0  0  0  0  0  0  0  0  0  0  0
   74.4266   40.7718   38.5410 C   0  0  2  0  0  0  0  0  0  0  0  0
   73.3483   41.5472   39.2750 C   0  0  0  0  0  0  0  0  0  0  0  0
   73.6085   42.4404   40.0617 O   0  0  0  0  0  0  0  0  0  0  0  0
   72.0521   41.2138   38.9685 N   0  0  0  0  0  0  0  0  0  0  0  0
   71.6096   40.1480   38.2245 C   0  0  0  0  0  0  0  0  0  0  0  0
   70.4234   39.9993   37.9683 O   0  0  0  0  0  0  0  0  0  0  0  0
   72.6857   39.2102   37.7106 C   0  0  0  0  0  0  0  0  0  0  0  0
   73.9840   39.3145   38.5065 C   0  0  0  0  0  0  0  0  0  0  0  0
   76.0952   40.4629   40.4782 C   0  0  0  0  0  0  0  0  0  0  0  0
   78.3572   43.3414   40.1876 C   0  0  0  0  0  0  0  0  0  0  0  0
   79.0632   43.3387   41.3841 C   0  0  0  0  0  0  0  0  0  0  0  0
   78.8027   42.3765   42.3597 C   0  0  0  0  0  0  0  0  0  0  0  0
   77.6458   40.6475   42.9243 H   0  0  0  0  0  0  0  0  0  0  0  0
   74.4697   41.1959   37.5312 H   0  0  0  0  0  0  0  0  0  0  0  0
   71.3423   41.8295   39.3462 H   0  0  0  0  0  0  0  0  0  0  0  0
   72.3047   38.1854   37.7615 H   0  0  0  0  0  0  0  0  0  0  0  0
   72.8638   39.4511   36.6569 H   0  0  0  0  0  0  0  0  0  0  0  0
   73.8243   38.9375   39.5236 H   0  0  0  0  0  0  0  0  0  0  0  0
   74.7537   38.6814   38.0564 H   0  0  0  0  0  0  0  0  0  0  0  0
   76.4616   39.4415   40.3295 H   0  0  0  0  0  0  0  0  0  0  0  0
   75.2393   40.4833   41.1461 H   0  0  0  0  0  0  0  0  0  0  0  0
   78.5361   44.0965   39.4296 H   0  0  0  0  0  0  0  0  0  0  0  0
   79.8112   44.1033   41.5684 H   0  0  0  0  0  0  0  0  0  0  0  0
   79.3540   42.3991   43.2948 H   0  0  0  0  0  0  0  0  0  0  0  0
  1 19  1  0  0  0  0
  1 18  2  0  0  0  0
  1  2  1  0  0  0  0
  2  3  2  0  0  0  0
  2 15  1  0  0  0  0
  3 16  1  0  0  0  0
  3  4  1  0  0  0  0
  4  6  1  0  0  0  0
  4  5  2  0  0  0  0
  6 15  1  0  0  0  0
  7  6  1  0  0  0  0
  7 20  1  0  0  0  0
  7  8  1  0  0  0  0
  7 14  1  0  0  0  0
  8  9  2  0  0  0  0
  8 10  1  0  0  0  0
 10 21  1  0  0  0  0
 10 11  1  0  0  0  0
 11 12  2  0  0  0  0
 11 13  1  0  0  0  0
 13 22  1  0  0  0  0
 13 23  1  0  0  0  0
 13 14  1  0  0  0  0
 14 24  1  0  0  0  0
 14 25  1  0  0  0  0
 15 26  1  0  0  0  0
 15 27  1  0  0  0  0
 16 17  2  0  0  0  0
 16 28  1  0  0  0  0
 17 18  1  0  0  0  0
 17 29  1  0  0  0  0
 18 30  1  0  0  0  0
M  ZZC   1 c1
M  ZZC   2 c2
M  ZZC   3 c3
M  ZZC   4 c4
M  ZZC   5 o1
M  ZZC   6 n1
M  ZZC   7 c5
M  ZZC   8 c6
M  ZZC   9 o2
M  ZZC  10 n2
M  ZZC  11 c7
M  ZZC  12 o3
M  ZZC  13 c8
M  ZZC  14 c9
M  ZZC  15 c10
M  ZZC  16 c11
M  ZZC  17 c12
M  ZZC  18 c13
M  ZZC  19 h11
M  ZZC  20 h51
M  ZZC  21 h21
M  ZZC  22 h81
M  ZZC  23 h82
M  ZZC  24 h91
M  ZZC  25 h92
M  ZZC  26 h101
M  ZZC  27 h102
M  ZZC  28 h111
M  ZZC  29 h121
M  ZZC  30 h131
M  ZZM   1 37
M  ZZI   1 125
M  ZZM   2 37
M  ZZI   2 124
M  ZZM   3 37
M  ZZI   3 124
M  ZZM   4 3
M  ZZI   4 121
M  ZZM   5 7
M  ZZI   5 81
M  ZZM   6 10
M  ZZI   6 192
M  ZZM   7 1
M  ZZI   7 113
M  ZZM   8 3
M  ZZI   8 121
M  ZZM   9 7
M  ZZI   9 81
M  ZZM  10 10
M  ZZI  10 191
M  ZZM  11 3
M  ZZI  11 121
M  ZZM  12 7
M  ZZI  12 81
M  ZZM  13 1
M  ZZI  13 112
M  ZZM  14 1
M  ZZI  14 112
M  ZZM  15 1
M  ZZI  15 112
M  ZZM  16 37
M  ZZI  16 125
M  ZZM  17 37
M  ZZI  17 125
M  ZZM  18 37
M  ZZI  18 125
M  ZZM  19 5
M  ZZI  19 1
M  ZZM  20 5
M  ZZI  20 1
M  ZZM  21 28
M  ZZI  21 11
M  ZZM  22 5
M  ZZI  22 1
M  ZZM  23 5
M  ZZI  23 1
M  ZZM  24 5
M  ZZI  24 1
M  ZZM  25 5
M  ZZI  25 1
M  ZZM  26 5
M  ZZI  26 1
M  ZZM  27 5
M  ZZI  27 1
M  ZZM  28 5
M  ZZI  28 1
M  ZZM  29 5
M  ZZI  29 1
M  ZZM  30 5
M  ZZI  30 1
M  END
> <IX>
1

> <NAME>
Cereblon_3MXF_13.pdb

> <Score>
-15.487345

> <Natom>
30

> <Nflex>
1

> <Hbond>
-4.205749

> <Hphob>
-3.705493

> <VwInt>
-19.499319

> <Dsolv>
13.792334

> <SolEl>
6.310412

> <Eintl>
3.376793

> <RecConf>
ND

> <projPath>
Cereblon_maps/

> <NAME_>
Cereblon_3MXF_13.pdb

$$$$
