Cereblon_2VTI_11.pdb
  MOLSOFT 04032206203D

 29 31  0  0  1  0  0  0  0  0999 V2000
   79.0042   42.4915   42.6724 C   0  0  0  0  0  0  0  0  0  0  0  0
   78.1855   42.1962   41.5967 C   0  0  0  0  0  0  0  0  0  0  0  0
   77.2681   41.0781   41.4110 C   0  0  0  0  0  0  0  0  0  0  0  0
   77.0881   40.2177   42.2590 O   0  0  0  0  0  0  0  0  0  0  0  0
   76.7279   41.2197   40.1460 N   0  0  0  0  0  0  0  0  0  0  0  0
   77.2236   42.3470   39.5231 C   0  0  0  0  0  0  0  0  0  0  0  0
   76.9881   42.7653   38.3970 O   0  0  0  0  0  0  0  0  0  0  0  0
   78.1580   42.9592   40.4680 C   0  0  0  0  0  0  0  0  0  0  0  0
   78.9573   44.0751   40.3255 C   0  0  0  0  0  0  0  0  0  0  0  0
   79.8000   44.3847   41.3874 C   0  0  0  0  0  0  0  0  0  0  0  0
   79.8239   43.6065   42.5453 C   0  0  0  0  0  0  0  0  0  0  0  0
   75.7197   40.3639   39.5139 C   0  0  2  0  0  0  0  0  0  0  0  0
   74.3397   40.9315   39.8039 C   0  0  0  0  0  0  0  0  0  0  0  0
   74.1521   42.1177   40.0182 O   0  0  0  0  0  0  0  0  0  0  0  0
   73.2894   40.0497   39.7285 N   0  0  0  0  0  0  0  0  0  0  0  0
   73.3277   38.7039   39.4573 C   0  0  0  0  0  0  0  0  0  0  0  0
   72.3120   38.0303   39.4008 O   0  0  0  0  0  0  0  0  0  0  0  0
   74.6927   38.1230   39.1796 C   0  0  0  0  0  0  0  0  0  0  0  0
   75.7750   38.8937   39.9157 C   0  0  0  0  0  0  0  0  0  0  0  0
   79.0158   41.8766   43.5680 H   0  0  0  0  0  0  0  0  0  0  0  0
   78.9277   44.6758   39.4247 H   0  0  0  0  0  0  0  0  0  0  0  0
   80.4493   45.2496   41.3169 H   0  0  0  0  0  0  0  0  0  0  0  0
   80.4920   43.8737   43.3589 H   0  0  0  0  0  0  0  0  0  0  0  0
   75.8580   40.4522   38.4344 H   0  0  0  0  0  0  0  0  0  0  0  0
   72.3714   40.4437   39.8926 H   0  0  0  0  0  0  0  0  0  0  0  0
   74.6998   37.0775   39.5039 H   0  0  0  0  0  0  0  0  0  0  0  0
   74.8535   38.1451   38.0973 H   0  0  0  0  0  0  0  0  0  0  0  0
   75.6134   38.7744   40.9906 H   0  0  0  0  0  0  0  0  0  0  0  0
   76.7603   38.4720   39.6915 H   0  0  0  0  0  0  0  0  0  0  0  0
  1 20  1  0  0  0  0
  1  2  1  0  0  0  0
  1 11  2  0  0  0  0
  2  3  1  0  0  0  0
  2  8  2  0  0  0  0
  3  4  2  0  0  0  0
  3  5  1  0  0  0  0
  5  6  1  0  0  0  0
 12  5  1  0  0  0  0
  6  7  2  0  0  0  0
  6  8  1  0  0  0  0
  8  9  1  0  0  0  0
  9 21  1  0  0  0  0
  9 10  2  0  0  0  0
 10 22  1  0  0  0  0
 10 11  1  0  0  0  0
 11 23  1  0  0  0  0
 12 24  1  0  0  0  0
 12 13  1  0  0  0  0
 12 19  1  0  0  0  0
 13 14  2  0  0  0  0
 13 15  1  0  0  0  0
 15 25  1  0  0  0  0
 15 16  1  0  0  0  0
 16 17  2  0  0  0  0
 16 18  1  0  0  0  0
 18 26  1  0  0  0  0
 18 27  1  0  0  0  0
 18 19  1  0  0  0  0
 19 28  1  0  0  0  0
 19 29  1  0  0  0  0
M  ZZC   1 c1
M  ZZC   2 c2
M  ZZC   3 c3
M  ZZC   4 o1
M  ZZC   5 n1
M  ZZC   6 c4
M  ZZC   7 o2
M  ZZC   8 c5
M  ZZC   9 c6
M  ZZC  10 c7
M  ZZC  11 c8
M  ZZC  12 c9
M  ZZC  13 c10
M  ZZC  14 o3
M  ZZC  15 n2
M  ZZC  16 c11
M  ZZC  17 o4
M  ZZC  18 c12
M  ZZC  19 c13
M  ZZC  20 h11
M  ZZC  21 h61
M  ZZC  22 h71
M  ZZC  23 h81
M  ZZC  24 h91
M  ZZC  25 h21
M  ZZC  26 h121
M  ZZC  27 h122
M  ZZC  28 h131
M  ZZC  29 h132
M  ZZM   1 37
M  ZZI   1 125
M  ZZM   2 37
M  ZZI   2 124
M  ZZM   3 3
M  ZZI   3 121
M  ZZM   4 7
M  ZZI   4 81
M  ZZM   5 10
M  ZZI   5 192
M  ZZM   6 3
M  ZZI   6 121
M  ZZM   7 7
M  ZZI   7 81
M  ZZM   8 37
M  ZZI   8 124
M  ZZM   9 37
M  ZZI   9 125
M  ZZM  10 37
M  ZZI  10 125
M  ZZM  11 37
M  ZZI  11 125
M  ZZM  12 1
M  ZZI  12 113
M  ZZM  13 3
M  ZZI  13 121
M  ZZM  14 7
M  ZZI  14 81
M  ZZM  15 10
M  ZZI  15 191
M  ZZM  16 3
M  ZZI  16 121
M  ZZM  17 7
M  ZZI  17 81
M  ZZM  18 1
M  ZZI  18 112
M  ZZM  19 1
M  ZZI  19 112
M  ZZM  20 5
M  ZZI  20 1
M  ZZM  21 5
M  ZZI  21 1
M  ZZM  22 5
M  ZZI  22 1
M  ZZM  23 5
M  ZZI  23 1
M  ZZM  24 5
M  ZZI  24 1
M  ZZM  25 28
M  ZZI  25 11
M  ZZM  26 5
M  ZZI  26 1
M  ZZM  27 5
M  ZZI  27 1
M  ZZM  28 5
M  ZZI  28 1
M  ZZM  29 5
M  ZZI  29 1
M  END
> <IX>
1

> <NAME>
Cereblon_2VTI_11.pdb

> <Score>
-19.416797

> <Natom>
29

> <Nflex>
1

> <Hbond>
-3.364436

> <Hphob>
-3.565605

> <VwInt>
-22.707495

> <Dsolv>
12.005137

> <SolEl>
5.608625

> <Eintl>
1.476885

> <RecConf>
ND

> <projPath>
Cereblon_maps/

> <NAME_>
Cereblon_2VTI_11.pdb

$$$$
