Cereblon_5L2I_3.pdb
  MOLSOFT 04032206253D

 31 33  0  0  1  0  0  0  0  0999 V2000
   78.8147   41.6784   43.8175 N   0  0  0  0  0  0  0  0  0  0  0  0
   78.9079   42.4234   42.6313 C   0  0  0  0  0  0  0  0  0  0  0  0
   78.1008   42.1584   41.5377 C   0  0  0  0  0  0  0  0  0  0  0  0
   77.1790   41.0480   41.3311 C   0  0  0  0  0  0  0  0  0  0  0  0
   76.9974   40.1659   42.1571 O   0  0  0  0  0  0  0  0  0  0  0  0
   76.6456   41.2117   40.0681 N   0  0  0  0  0  0  0  0  0  0  0  0
   77.1666   42.3322   39.4542 C   0  0  0  0  0  0  0  0  0  0  0  0
   76.9510   42.7550   38.3258 O   0  0  0  0  0  0  0  0  0  0  0  0
   78.0981   42.9276   40.4137 C   0  0  0  0  0  0  0  0  0  0  0  0
   78.9090   44.0374   40.2932 C   0  0  0  0  0  0  0  0  0  0  0  0
   79.7249   44.3377   41.3777 C   0  0  0  0  0  0  0  0  0  0  0  0
   79.7130   43.5542   42.5333 C   0  0  0  0  0  0  0  0  0  0  0  0
   75.6263   40.3746   39.4314 C   0  0  2  0  0  0  0  0  0  0  0  0
   74.2551   40.9542   39.7348 C   0  0  0  0  0  0  0  0  0  0  0  0
   74.0858   42.1342   39.9930 O   0  0  0  0  0  0  0  0  0  0  0  0
   73.1935   40.0904   39.6184 N   0  0  0  0  0  0  0  0  0  0  0  0
   73.2176   38.7522   39.3081 C   0  0  0  0  0  0  0  0  0  0  0  0
   72.1924   38.0997   39.1995 O   0  0  0  0  0  0  0  0  0  0  0  0
   74.5806   38.1517   39.0583 C   0  0  0  0  0  0  0  0  0  0  0  0
   75.6583   38.9005   39.8223 C   0  0  0  0  0  0  0  0  0  0  0  0
   79.5544   41.7613   44.5112 H   0  0  0  0  0  0  0  0  0  0  0  0
   78.3257   40.7830   43.7732 H   0  0  0  0  0  0  0  0  0  0  0  0
   78.9014   44.6460   39.3968 H   0  0  0  0  0  0  0  0  0  0  0  0
   80.3701   45.2081   41.3338 H   0  0  0  0  0  0  0  0  0  0  0  0
   80.3451   43.8354   43.3701 H   0  0  0  0  0  0  0  0  0  0  0  0
   75.7606   40.4731   38.3531 H   0  0  0  0  0  0  0  0  0  0  0  0
   72.2788   40.4940   39.7781 H   0  0  0  0  0  0  0  0  0  0  0  0
   74.5640   37.1044   39.3762 H   0  0  0  0  0  0  0  0  0  0  0  0
   74.7701   38.1755   37.9807 H   0  0  0  0  0  0  0  0  0  0  0  0
   76.6432   38.4690   39.6160 H   0  0  0  0  0  0  0  0  0  0  0  0
   75.4721   38.7745   40.8927 H   0  0  0  0  0  0  0  0  0  0  0  0
  1  2  1  0  0  0  0
  1 21  1  0  0  0  0
  1 22  1  0  0  0  0
  2  3  1  0  0  0  0
  2 12  2  0  0  0  0
  3  9  2  0  0  0  0
  3  4  1  0  0  0  0
  4  5  2  0  0  0  0
  4  6  1  0  0  0  0
  6  7  1  0  0  0  0
 13  6  1  0  0  0  0
  7  8  2  0  0  0  0
  7  9  1  0  0  0  0
  9 10  1  0  0  0  0
 10 23  1  0  0  0  0
 10 11  2  0  0  0  0
 11 12  1  0  0  0  0
 11 24  1  0  0  0  0
 12 25  1  0  0  0  0
 13 26  1  0  0  0  0
 13 14  1  0  0  0  0
 13 20  1  0  0  0  0
 14 15  2  0  0  0  0
 14 16  1  0  0  0  0
 16 27  1  0  0  0  0
 16 17  1  0  0  0  0
 17 18  2  0  0  0  0
 17 19  1  0  0  0  0
 19 28  1  0  0  0  0
 19 29  1  0  0  0  0
 19 20  1  0  0  0  0
 20 30  1  0  0  0  0
 20 31  1  0  0  0  0
M  ZZC   1 n1
M  ZZC   2 c1
M  ZZC   3 c2
M  ZZC   4 c3
M  ZZC   5 o1
M  ZZC   6 n2
M  ZZC   7 c4
M  ZZC   8 o2
M  ZZC   9 c5
M  ZZC  10 c6
M  ZZC  11 c7
M  ZZC  12 c8
M  ZZC  13 c9
M  ZZC  14 c10
M  ZZC  15 o3
M  ZZC  16 n3
M  ZZC  17 c11
M  ZZC  18 o4
M  ZZC  19 c12
M  ZZC  20 c13
M  ZZC  21 h11
M  ZZC  22 h12
M  ZZC  23 h61
M  ZZC  24 h71
M  ZZC  25 h81
M  ZZC  26 h91
M  ZZC  27 h31
M  ZZC  28 h121
M  ZZC  29 h122
M  ZZC  30 h131
M  ZZC  31 h132
M  ZZM   1 40
M  ZZI   1 224
M  ZZM   2 37
M  ZZI   2 124
M  ZZM   3 37
M  ZZI   3 124
M  ZZM   4 3
M  ZZI   4 121
M  ZZM   5 7
M  ZZI   5 81
M  ZZM   6 10
M  ZZI   6 192
M  ZZM   7 3
M  ZZI   7 121
M  ZZM   8 7
M  ZZI   8 81
M  ZZM   9 37
M  ZZI   9 124
M  ZZM  10 37
M  ZZI  10 125
M  ZZM  11 37
M  ZZI  11 125
M  ZZM  12 37
M  ZZI  12 125
M  ZZM  13 1
M  ZZI  13 113
M  ZZM  14 3
M  ZZI  14 121
M  ZZM  15 7
M  ZZI  15 81
M  ZZM  16 10
M  ZZI  16 191
M  ZZM  17 3
M  ZZI  17 121
M  ZZM  18 7
M  ZZI  18 81
M  ZZM  19 1
M  ZZI  19 112
M  ZZM  20 1
M  ZZI  20 112
M  ZZM  21 28
M  ZZI  21 11
M  ZZM  22 28
M  ZZI  22 11
M  ZZM  23 5
M  ZZI  23 1
M  ZZM  24 5
M  ZZI  24 1
M  ZZM  25 5
M  ZZI  25 1
M  ZZM  26 5
M  ZZI  26 1
M  ZZM  27 28
M  ZZI  27 11
M  ZZM  28 5
M  ZZI  28 1
M  ZZM  29 5
M  ZZI  29 1
M  ZZM  30 5
M  ZZI  30 1
M  ZZM  31 5
M  ZZI  31 1
M  END
> <IX>
1

> <NAME>
Cereblon_5L2I_3.pdb

> <Score>
-18.284697

> <Natom>
31

> <Nflex>
1

> <Hbond>
-3.704095

> <Hphob>
-3.603479

> <VwInt>
-24.242039

> <Dsolv>
15.132359

> <SolEl>
7.23844

> <Eintl>
1.693987

> <RecConf>
ND

> <projPath>
Cereblon_maps/

> <NAME_>
Cereblon_5L2I_3.pdb

$$$$
