Cereblon_5E80_3.pdb
  MOLSOFT 04032206243D

 31 33  0  0  1  0  0  0  0  0999 V2000
   78.8137   41.6781   43.8202 N   0  0  0  0  0  0  0  0  0  0  0  0
   78.9080   42.4225   42.6338 C   0  0  0  0  0  0  0  0  0  0  0  0
   78.1015   42.1580   41.5396 C   0  0  0  0  0  0  0  0  0  0  0  0
   77.1812   41.0470   41.3320 C   0  0  0  0  0  0  0  0  0  0  0  0
   77.0002   40.1641   42.1573 O   0  0  0  0  0  0  0  0  0  0  0  0
   76.6472   41.2114   40.0694 N   0  0  0  0  0  0  0  0  0  0  0  0
   77.1681   42.3326   39.4560 C   0  0  0  0  0  0  0  0  0  0  0  0
   76.9548   42.7558   38.3273 O   0  0  0  0  0  0  0  0  0  0  0  0
   78.0992   42.9277   40.4159 C   0  0  0  0  0  0  0  0  0  0  0  0
   78.9105   44.0372   40.2959 C   0  0  0  0  0  0  0  0  0  0  0  0
   79.7256   44.3374   41.3811 C   0  0  0  0  0  0  0  0  0  0  0  0
   79.7122   43.5542   42.5369 C   0  0  0  0  0  0  0  0  0  0  0  0
   75.6274   40.3754   39.4321 C   0  0  2  0  0  0  0  0  0  0  0  0
   74.2562   40.9547   39.7359 C   0  0  0  0  0  0  0  0  0  0  0  0
   74.0863   42.1351   39.9922 O   0  0  0  0  0  0  0  0  0  0  0  0
   73.1952   40.0899   39.6223 N   0  0  0  0  0  0  0  0  0  0  0  0
   73.2190   38.7522   39.3099 C   0  0  0  0  0  0  0  0  0  0  0  0
   72.1937   38.1001   39.2000 O   0  0  0  0  0  0  0  0  0  0  0  0
   74.5818   38.1520   39.0583 C   0  0  0  0  0  0  0  0  0  0  0  0
   75.6595   38.9010   39.8221 C   0  0  0  0  0  0  0  0  0  0  0  0
   79.5543   41.7603   44.5132 H   0  0  0  0  0  0  0  0  0  0  0  0
   78.3251   40.7824   43.7773 H   0  0  0  0  0  0  0  0  0  0  0  0
   78.9031   44.6456   39.3992 H   0  0  0  0  0  0  0  0  0  0  0  0
   80.3738   45.2056   41.3375 H   0  0  0  0  0  0  0  0  0  0  0  0
   80.3434   43.8359   43.3742 H   0  0  0  0  0  0  0  0  0  0  0  0
   75.7625   40.4749   38.3538 H   0  0  0  0  0  0  0  0  0  0  0  0
   72.2801   40.4926   39.7823 H   0  0  0  0  0  0  0  0  0  0  0  0
   74.5662   37.1047   39.3766 H   0  0  0  0  0  0  0  0  0  0  0  0
   74.7707   38.1763   37.9806 H   0  0  0  0  0  0  0  0  0  0  0  0
   75.4745   38.7740   40.8927 H   0  0  0  0  0  0  0  0  0  0  0  0
   76.6441   38.4695   39.6151 H   0  0  0  0  0  0  0  0  0  0  0  0
  1  2  1  0  0  0  0
  1 21  1  0  0  0  0
  1 22  1  0  0  0  0
  2  3  1  0  0  0  0
  2 12  2  0  0  0  0
  3  9  2  0  0  0  0
  3  4  1  0  0  0  0
  4  5  2  0  0  0  0
  4  6  1  0  0  0  0
  6  7  1  0  0  0  0
 13  6  1  0  0  0  0
  7  8  2  0  0  0  0
  7  9  1  0  0  0  0
  9 10  1  0  0  0  0
 10 23  1  0  0  0  0
 10 11  2  0  0  0  0
 11 12  1  0  0  0  0
 11 24  1  0  0  0  0
 12 25  1  0  0  0  0
 13 26  1  0  0  0  0
 13 14  1  0  0  0  0
 13 20  1  0  0  0  0
 14 15  2  0  0  0  0
 14 16  1  0  0  0  0
 16 27  1  0  0  0  0
 16 17  1  0  0  0  0
 17 18  2  0  0  0  0
 17 19  1  0  0  0  0
 19 28  1  0  0  0  0
 19 29  1  0  0  0  0
 19 20  1  0  0  0  0
 20 30  1  0  0  0  0
 20 31  1  0  0  0  0
M  ZZC   1 n1
M  ZZC   2 c1
M  ZZC   3 c2
M  ZZC   4 c3
M  ZZC   5 o1
M  ZZC   6 n2
M  ZZC   7 c4
M  ZZC   8 o2
M  ZZC   9 c5
M  ZZC  10 c6
M  ZZC  11 c7
M  ZZC  12 c8
M  ZZC  13 c9
M  ZZC  14 c10
M  ZZC  15 o3
M  ZZC  16 n3
M  ZZC  17 c11
M  ZZC  18 o4
M  ZZC  19 c12
M  ZZC  20 c13
M  ZZC  21 h11
M  ZZC  22 h12
M  ZZC  23 h61
M  ZZC  24 h71
M  ZZC  25 h81
M  ZZC  26 h91
M  ZZC  27 h31
M  ZZC  28 h121
M  ZZC  29 h122
M  ZZC  30 h131
M  ZZC  31 h132
M  ZZM   1 40
M  ZZI   1 224
M  ZZM   2 37
M  ZZI   2 124
M  ZZM   3 37
M  ZZI   3 124
M  ZZM   4 3
M  ZZI   4 121
M  ZZM   5 7
M  ZZI   5 81
M  ZZM   6 10
M  ZZI   6 192
M  ZZM   7 3
M  ZZI   7 121
M  ZZM   8 7
M  ZZI   8 81
M  ZZM   9 37
M  ZZI   9 124
M  ZZM  10 37
M  ZZI  10 125
M  ZZM  11 37
M  ZZI  11 125
M  ZZM  12 37
M  ZZI  12 125
M  ZZM  13 1
M  ZZI  13 113
M  ZZM  14 3
M  ZZI  14 121
M  ZZM  15 7
M  ZZI  15 81
M  ZZM  16 10
M  ZZI  16 191
M  ZZM  17 3
M  ZZI  17 121
M  ZZM  18 7
M  ZZI  18 81
M  ZZM  19 1
M  ZZI  19 112
M  ZZM  20 1
M  ZZI  20 112
M  ZZM  21 28
M  ZZI  21 11
M  ZZM  22 28
M  ZZI  22 11
M  ZZM  23 5
M  ZZI  23 1
M  ZZM  24 5
M  ZZI  24 1
M  ZZM  25 5
M  ZZI  25 1
M  ZZM  26 5
M  ZZI  26 1
M  ZZM  27 28
M  ZZI  27 11
M  ZZM  28 5
M  ZZI  28 1
M  ZZM  29 5
M  ZZI  29 1
M  ZZM  30 5
M  ZZI  30 1
M  ZZM  31 5
M  ZZI  31 1
M  END
> <IX>
1

> <NAME>
Cereblon_5E80_3.pdb

> <Score>
-18.248909

> <Natom>
31

> <Nflex>
1

> <Hbond>
-3.711977

> <Hphob>
-3.565255

> <VwInt>
-24.17383

> <Dsolv>
15.276251

> <SolEl>
7.011605

> <Eintl>
1.700158

> <RecConf>
ND

> <projPath>
Cereblon_maps/

> <NAME_>
Cereblon_5E80_3.pdb

$$$$
