Cereblon_1HWK_33.pdb
  MOLSOFT 04032206193D

 30 32  0  0  1  0  0  0  0  0999 V2000
   75.6723   37.9110   39.7487 C   0  0  0  0  0  0  0  0  0  0  0  0
   74.9804   39.0117   39.2708 C   0  0  0  0  0  0  0  0  0  0  0  0
   75.2974   40.2634   39.7173 C   0  0  0  0  0  0  0  0  0  0  0  0
   74.4121   41.2245   39.0576 C   0  0  0  0  0  0  0  0  0  0  0  0
   74.4207   42.4198   39.3094 O   0  0  0  0  0  0  0  0  0  0  0  0
   73.6330   40.5046   38.1642 N   0  0  0  0  0  0  0  0  0  0  0  0
   72.6008   41.0288   37.2545 C   0  0  1  0  0  0  0  0  0  0  0  0
   71.2796   41.2566   37.9879 C   0  0  0  0  0  0  0  0  0  0  0  0
   70.9178   40.5828   38.9417 O   0  0  0  0  0  0  0  0  0  0  0  0
   70.4465   42.2108   37.4498 N   0  0  0  0  0  0  0  0  0  0  0  0
   70.6566   43.0333   36.3752 C   0  0  0  0  0  0  0  0  0  0  0  0
   69.8543   43.9046   36.0761 O   0  0  0  0  0  0  0  0  0  0  0  0
   71.9155   42.7660   35.5908 C   0  0  0  0  0  0  0  0  0  0  0  0
   73.0336   42.2872   36.5024 C   0  0  0  0  0  0  0  0  0  0  0  0
   73.8714   39.0758   38.2822 C   0  0  0  0  0  0  0  0  0  0  0  0
   76.3048   40.5092   40.6326 C   0  0  0  0  0  0  0  0  0  0  0  0
   77.0028   39.4109   41.1120 C   0  0  0  0  0  0  0  0  0  0  0  0
   76.6884   38.1278   40.6723 C   0  0  0  0  0  0  0  0  0  0  0  0
   75.4379   36.9066   39.4097 H   0  0  0  0  0  0  0  0  0  0  0  0
   72.4078   40.2438   36.5139 H   0  0  0  0  0  0  0  0  0  0  0  0
   69.5753   42.3633   37.9365 H   0  0  0  0  0  0  0  0  0  0  0  0
   71.6921   42.0259   34.8149 H   0  0  0  0  0  0  0  0  0  0  0  0
   72.2138   43.6946   35.0999 H   0  0  0  0  0  0  0  0  0  0  0  0
   73.9347   42.0860   35.9142 H   0  0  0  0  0  0  0  0  0  0  0  0
   73.2889   43.0913   37.1980 H   0  0  0  0  0  0  0  0  0  0  0  0
   74.1617   38.6664   37.3088 H   0  0  0  0  0  0  0  0  0  0  0  0
   72.9679   38.5847   38.6594 H   0  0  0  0  0  0  0  0  0  0  0  0
   76.5494   41.5159   40.9558 H   0  0  0  0  0  0  0  0  0  0  0  0
   77.8016   39.5555   41.8332 H   0  0  0  0  0  0  0  0  0  0  0  0
   77.2491   37.2820   41.0572 H   0  0  0  0  0  0  0  0  0  0  0  0
  1 19  1  0  0  0  0
  1 18  2  0  0  0  0
  1  2  1  0  0  0  0
  2  3  2  0  0  0  0
  2 15  1  0  0  0  0
  3 16  1  0  0  0  0
  3  4  1  0  0  0  0
  4  6  1  0  0  0  0
  4  5  2  0  0  0  0
  6 15  1  0  0  0  0
  7  6  1  0  0  0  0
  7 20  1  0  0  0  0
  7  8  1  0  0  0  0
  7 14  1  0  0  0  0
  8  9  2  0  0  0  0
  8 10  1  0  0  0  0
 10 21  1  0  0  0  0
 10 11  1  0  0  0  0
 11 12  2  0  0  0  0
 11 13  1  0  0  0  0
 13 22  1  0  0  0  0
 13 23  1  0  0  0  0
 13 14  1  0  0  0  0
 14 24  1  0  0  0  0
 14 25  1  0  0  0  0
 15 26  1  0  0  0  0
 15 27  1  0  0  0  0
 16 17  2  0  0  0  0
 16 28  1  0  0  0  0
 17 18  1  0  0  0  0
 17 29  1  0  0  0  0
 18 30  1  0  0  0  0
M  ZZC   1 c1
M  ZZC   2 c2
M  ZZC   3 c3
M  ZZC   4 c4
M  ZZC   5 o1
M  ZZC   6 n1
M  ZZC   7 c5
M  ZZC   8 c6
M  ZZC   9 o2
M  ZZC  10 n2
M  ZZC  11 c7
M  ZZC  12 o3
M  ZZC  13 c8
M  ZZC  14 c9
M  ZZC  15 c10
M  ZZC  16 c11
M  ZZC  17 c12
M  ZZC  18 c13
M  ZZC  19 h11
M  ZZC  20 h51
M  ZZC  21 h21
M  ZZC  22 h81
M  ZZC  23 h82
M  ZZC  24 h91
M  ZZC  25 h92
M  ZZC  26 h101
M  ZZC  27 h102
M  ZZC  28 h111
M  ZZC  29 h121
M  ZZC  30 h131
M  ZZM   1 37
M  ZZI   1 125
M  ZZM   2 37
M  ZZI   2 124
M  ZZM   3 37
M  ZZI   3 124
M  ZZM   4 3
M  ZZI   4 121
M  ZZM   5 7
M  ZZI   5 81
M  ZZM   6 10
M  ZZI   6 192
M  ZZM   7 1
M  ZZI   7 113
M  ZZM   8 3
M  ZZI   8 121
M  ZZM   9 7
M  ZZI   9 81
M  ZZM  10 10
M  ZZI  10 191
M  ZZM  11 3
M  ZZI  11 121
M  ZZM  12 7
M  ZZI  12 81
M  ZZM  13 1
M  ZZI  13 112
M  ZZM  14 1
M  ZZI  14 112
M  ZZM  15 1
M  ZZI  15 112
M  ZZM  16 37
M  ZZI  16 125
M  ZZM  17 37
M  ZZI  17 125
M  ZZM  18 37
M  ZZI  18 125
M  ZZM  19 5
M  ZZI  19 1
M  ZZM  20 5
M  ZZI  20 1
M  ZZM  21 28
M  ZZI  21 11
M  ZZM  22 5
M  ZZI  22 1
M  ZZM  23 5
M  ZZI  23 1
M  ZZM  24 5
M  ZZI  24 1
M  ZZM  25 5
M  ZZI  25 1
M  ZZM  26 5
M  ZZI  26 1
M  ZZM  27 5
M  ZZI  27 1
M  ZZM  28 5
M  ZZI  28 1
M  ZZM  29 5
M  ZZI  29 1
M  ZZM  30 5
M  ZZI  30 1
M  END
> <IX>
1

> <NAME>
Cereblon_1HWK_33.pdb

> <Score>
-20.729544

> <Natom>
30

> <Nflex>
1

> <Hbond>
-4.62655

> <Hphob>
-3.595055

> <VwInt>
-22.027475

> <Dsolv>
13.245584

> <SolEl>
5.829912

> <Eintl>
1.716432

> <RecConf>
ND

> <projPath>
Cereblon_maps/

> <NAME_>
Cereblon_1HWK_33.pdb

$$$$
