Cereblon_5V9O_13.pdb
  MOLSOFT 04032206273D

 31 33  0  0  1  0  0  0  0  0999 V2000
   78.7263   41.7090   43.8956 N   0  0  0  0  0  0  0  0  0  0  0  0
   78.7853   42.4962   42.7339 C   0  0  0  0  0  0  0  0  0  0  0  0
   78.0704   42.1745   41.5921 C   0  0  0  0  0  0  0  0  0  0  0  0
   77.1579   41.0609   41.3699 C   0  0  0  0  0  0  0  0  0  0  0  0
   76.9369   40.2004   42.2086 O   0  0  0  0  0  0  0  0  0  0  0  0
   76.6659   41.2050   40.0881 N   0  0  0  0  0  0  0  0  0  0  0  0
   77.2012   42.3204   39.4774 C   0  0  0  0  0  0  0  0  0  0  0  0
   77.0016   42.7409   38.3451 O   0  0  0  0  0  0  0  0  0  0  0  0
   78.1127   42.9212   40.4537 C   0  0  0  0  0  0  0  0  0  0  0  0
   78.9355   44.0231   40.3422 C   0  0  0  0  0  0  0  0  0  0  0  0
   79.7252   44.3290   41.4451 C   0  0  0  0  0  0  0  0  0  0  0  0
   79.6555   43.5765   42.6195 C   0  0  0  0  0  0  0  0  0  0  0  0
   75.6515   40.3703   39.4410 C   0  0  2  0  0  0  0  0  0  0  0  0
   74.2789   40.9548   39.7306 C   0  0  0  0  0  0  0  0  0  0  0  0
   74.1111   42.1365   39.9820 O   0  0  0  0  0  0  0  0  0  0  0  0
   73.2159   40.0933   39.6120 N   0  0  0  0  0  0  0  0  0  0  0  0
   73.2379   38.7532   39.3108 C   0  0  0  0  0  0  0  0  0  0  0  0
   72.2114   38.1021   39.2044 O   0  0  0  0  0  0  0  0  0  0  0  0
   74.6000   38.1485   39.0672 C   0  0  0  0  0  0  0  0  0  0  0  0
   75.6779   38.8964   39.8323 C   0  0  0  0  0  0  0  0  0  0  0  0
   78.9715   42.1375   44.7869 H   0  0  0  0  0  0  0  0  0  0  0  0
   78.0182   40.9739   43.9253 H   0  0  0  0  0  0  0  0  0  0  0  0
   78.9674   44.6125   39.4336 H   0  0  0  0  0  0  0  0  0  0  0  0
   80.4015   45.1751   41.3960 H   0  0  0  0  0  0  0  0  0  0  0  0
   80.2875   43.8464   43.4601 H   0  0  0  0  0  0  0  0  0  0  0  0
   75.7980   40.4677   38.3640 H   0  0  0  0  0  0  0  0  0  0  0  0
   72.3010   40.4994   39.7649 H   0  0  0  0  0  0  0  0  0  0  0  0
   74.5803   37.1016   39.3865 H   0  0  0  0  0  0  0  0  0  0  0  0
   74.7910   38.1696   37.9898 H   0  0  0  0  0  0  0  0  0  0  0  0
   76.6620   38.4623   39.6284 H   0  0  0  0  0  0  0  0  0  0  0  0
   75.4908   38.7697   40.9024 H   0  0  0  0  0  0  0  0  0  0  0  0
  1  2  1  0  0  0  0
  1 21  1  0  0  0  0
  1 22  1  0  0  0  0
  2  3  1  0  0  0  0
  2 12  2  0  0  0  0
  3  9  2  0  0  0  0
  3  4  1  0  0  0  0
  4  5  2  0  0  0  0
  4  6  1  0  0  0  0
  6  7  1  0  0  0  0
 13  6  1  0  0  0  0
  7  8  2  0  0  0  0
  7  9  1  0  0  0  0
  9 10  1  0  0  0  0
 10 23  1  0  0  0  0
 10 11  2  0  0  0  0
 11 12  1  0  0  0  0
 11 24  1  0  0  0  0
 12 25  1  0  0  0  0
 13 26  1  0  0  0  0
 13 14  1  0  0  0  0
 13 20  1  0  0  0  0
 14 15  2  0  0  0  0
 14 16  1  0  0  0  0
 16 27  1  0  0  0  0
 16 17  1  0  0  0  0
 17 18  2  0  0  0  0
 17 19  1  0  0  0  0
 19 28  1  0  0  0  0
 19 29  1  0  0  0  0
 19 20  1  0  0  0  0
 20 30  1  0  0  0  0
 20 31  1  0  0  0  0
M  ZZC   1 n1
M  ZZC   2 c1
M  ZZC   3 c2
M  ZZC   4 c3
M  ZZC   5 o1
M  ZZC   6 n2
M  ZZC   7 c4
M  ZZC   8 o2
M  ZZC   9 c5
M  ZZC  10 c6
M  ZZC  11 c7
M  ZZC  12 c8
M  ZZC  13 c9
M  ZZC  14 c10
M  ZZC  15 o3
M  ZZC  16 n3
M  ZZC  17 c11
M  ZZC  18 o4
M  ZZC  19 c12
M  ZZC  20 c13
M  ZZC  21 h11
M  ZZC  22 h12
M  ZZC  23 h61
M  ZZC  24 h71
M  ZZC  25 h81
M  ZZC  26 h91
M  ZZC  27 h31
M  ZZC  28 h121
M  ZZC  29 h122
M  ZZC  30 h131
M  ZZC  31 h132
M  ZZM   1 40
M  ZZI   1 224
M  ZZM   2 37
M  ZZI   2 124
M  ZZM   3 37
M  ZZI   3 124
M  ZZM   4 3
M  ZZI   4 121
M  ZZM   5 7
M  ZZI   5 81
M  ZZM   6 10
M  ZZI   6 192
M  ZZM   7 3
M  ZZI   7 121
M  ZZM   8 7
M  ZZI   8 81
M  ZZM   9 37
M  ZZI   9 124
M  ZZM  10 37
M  ZZI  10 125
M  ZZM  11 37
M  ZZI  11 125
M  ZZM  12 37
M  ZZI  12 125
M  ZZM  13 1
M  ZZI  13 113
M  ZZM  14 3
M  ZZI  14 121
M  ZZM  15 7
M  ZZI  15 81
M  ZZM  16 10
M  ZZI  16 191
M  ZZM  17 3
M  ZZI  17 121
M  ZZM  18 7
M  ZZI  18 81
M  ZZM  19 1
M  ZZI  19 112
M  ZZM  20 1
M  ZZI  20 112
M  ZZM  21 28
M  ZZI  21 11
M  ZZM  22 28
M  ZZI  22 11
M  ZZM  23 5
M  ZZI  23 1
M  ZZM  24 5
M  ZZI  24 1
M  ZZM  25 5
M  ZZI  25 1
M  ZZM  26 5
M  ZZI  26 1
M  ZZM  27 28
M  ZZI  27 11
M  ZZM  28 5
M  ZZI  28 1
M  ZZM  29 5
M  ZZI  29 1
M  ZZM  30 5
M  ZZI  30 1
M  ZZM  31 5
M  ZZI  31 1
M  END
> <IX>
1

> <NAME>
Cereblon_5V9O_13.pdb

> <Score>
-21.55767

> <Natom>
31

> <Nflex>
1

> <Hbond>
-4.891846

> <Hphob>
-3.559457

> <VwInt>
-23.974185

> <Dsolv>
15.142115

> <SolEl>
6.26919

> <Eintl>
1.805785

> <RecConf>
ND

> <projPath>
Cereblon_maps/

> <NAME_>
Cereblon_5V9O_13.pdb

$$$$
