Cereblon_1EJ1_10.pdb
  MOLSOFT 04032206183D

 30 32  0  0  1  0  0  0  0  0999 V2000
   75.6624   37.9099   39.7395 C   0  0  0  0  0  0  0  0  0  0  0  0
   74.9746   39.0131   39.2625 C   0  0  0  0  0  0  0  0  0  0  0  0
   75.2938   40.2629   39.7121 C   0  0  0  0  0  0  0  0  0  0  0  0
   74.4130   41.2273   39.0513 C   0  0  0  0  0  0  0  0  0  0  0  0
   74.4210   42.4214   39.3087 O   0  0  0  0  0  0  0  0  0  0  0  0
   73.6368   40.5114   38.1520 N   0  0  0  0  0  0  0  0  0  0  0  0
   72.6029   41.0396   37.2464 C   0  0  1  0  0  0  0  0  0  0  0  0
   71.2794   41.2560   37.9791 C   0  0  0  0  0  0  0  0  0  0  0  0
   70.9193   40.5756   38.9289 O   0  0  0  0  0  0  0  0  0  0  0  0
   70.4412   42.2078   37.4449 N   0  0  0  0  0  0  0  0  0  0  0  0
   70.6506   43.0402   36.3779 C   0  0  0  0  0  0  0  0  0  0  0  0
   69.8456   43.9109   36.0842 O   0  0  0  0  0  0  0  0  0  0  0  0
   71.9124   42.7851   35.5938 C   0  0  0  0  0  0  0  0  0  0  0  0
   73.0308   42.3052   36.5046 C   0  0  0  0  0  0  0  0  0  0  0  0
   73.8678   39.0814   38.2719 C   0  0  0  0  0  0  0  0  0  0  0  0
   76.2990   40.5043   40.6309 C   0  0  0  0  0  0  0  0  0  0  0  0
   76.9925   39.4033   41.1106 C   0  0  0  0  0  0  0  0  0  0  0  0
   76.6758   38.1218   40.6675 C   0  0  0  0  0  0  0  0  0  0  0  0
   75.4259   36.9069   39.3978 H   0  0  0  0  0  0  0  0  0  0  0  0
   72.4148   40.2600   36.4988 H   0  0  0  0  0  0  0  0  0  0  0  0
   69.5690   42.3529   37.9319 H   0  0  0  0  0  0  0  0  0  0  0  0
   71.6942   42.0503   34.8114 H   0  0  0  0  0  0  0  0  0  0  0  0
   72.2064   43.7195   35.1116 H   0  0  0  0  0  0  0  0  0  0  0  0
   73.9341   42.1119   35.9171 H   0  0  0  0  0  0  0  0  0  0  0  0
   73.2805   43.1059   37.2062 H   0  0  0  0  0  0  0  0  0  0  0  0
   74.1572   38.6692   37.2995 H   0  0  0  0  0  0  0  0  0  0  0  0
   72.9616   38.5948   38.6484 H   0  0  0  0  0  0  0  0  0  0  0  0
   76.5453   41.5099   40.9565 H   0  0  0  0  0  0  0  0  0  0  0  0
   77.7894   39.5444   41.8344 H   0  0  0  0  0  0  0  0  0  0  0  0
   77.2325   37.2735   41.0527 H   0  0  0  0  0  0  0  0  0  0  0  0
  1 19  1  0  0  0  0
  1 18  2  0  0  0  0
  1  2  1  0  0  0  0
  2  3  2  0  0  0  0
  2 15  1  0  0  0  0
  3 16  1  0  0  0  0
  3  4  1  0  0  0  0
  4  6  1  0  0  0  0
  4  5  2  0  0  0  0
  6 15  1  0  0  0  0
  7  6  1  0  0  0  0
  7 20  1  0  0  0  0
  7  8  1  0  0  0  0
  7 14  1  0  0  0  0
  8  9  2  0  0  0  0
  8 10  1  0  0  0  0
 10 21  1  0  0  0  0
 10 11  1  0  0  0  0
 11 12  2  0  0  0  0
 11 13  1  0  0  0  0
 13 22  1  0  0  0  0
 13 23  1  0  0  0  0
 13 14  1  0  0  0  0
 14 24  1  0  0  0  0
 14 25  1  0  0  0  0
 15 26  1  0  0  0  0
 15 27  1  0  0  0  0
 16 17  2  0  0  0  0
 16 28  1  0  0  0  0
 17 18  1  0  0  0  0
 17 29  1  0  0  0  0
 18 30  1  0  0  0  0
M  ZZC   1 c1
M  ZZC   2 c2
M  ZZC   3 c3
M  ZZC   4 c4
M  ZZC   5 o1
M  ZZC   6 n1
M  ZZC   7 c5
M  ZZC   8 c6
M  ZZC   9 o2
M  ZZC  10 n2
M  ZZC  11 c7
M  ZZC  12 o3
M  ZZC  13 c8
M  ZZC  14 c9
M  ZZC  15 c10
M  ZZC  16 c11
M  ZZC  17 c12
M  ZZC  18 c13
M  ZZC  19 h11
M  ZZC  20 h51
M  ZZC  21 h21
M  ZZC  22 h81
M  ZZC  23 h82
M  ZZC  24 h91
M  ZZC  25 h92
M  ZZC  26 h101
M  ZZC  27 h102
M  ZZC  28 h111
M  ZZC  29 h121
M  ZZC  30 h131
M  ZZM   1 37
M  ZZI   1 125
M  ZZM   2 37
M  ZZI   2 124
M  ZZM   3 37
M  ZZI   3 124
M  ZZM   4 3
M  ZZI   4 121
M  ZZM   5 7
M  ZZI   5 81
M  ZZM   6 10
M  ZZI   6 192
M  ZZM   7 1
M  ZZI   7 113
M  ZZM   8 3
M  ZZI   8 121
M  ZZM   9 7
M  ZZI   9 81
M  ZZM  10 10
M  ZZI  10 191
M  ZZM  11 3
M  ZZI  11 121
M  ZZM  12 7
M  ZZI  12 81
M  ZZM  13 1
M  ZZI  13 112
M  ZZM  14 1
M  ZZI  14 112
M  ZZM  15 1
M  ZZI  15 112
M  ZZM  16 37
M  ZZI  16 125
M  ZZM  17 37
M  ZZI  17 125
M  ZZM  18 37
M  ZZI  18 125
M  ZZM  19 5
M  ZZI  19 1
M  ZZM  20 5
M  ZZI  20 1
M  ZZM  21 28
M  ZZI  21 11
M  ZZM  22 5
M  ZZI  22 1
M  ZZM  23 5
M  ZZI  23 1
M  ZZM  24 5
M  ZZI  24 1
M  ZZM  25 5
M  ZZI  25 1
M  ZZM  26 5
M  ZZI  26 1
M  ZZM  27 5
M  ZZI  27 1
M  ZZM  28 5
M  ZZI  28 1
M  ZZM  29 5
M  ZZI  29 1
M  ZZM  30 5
M  ZZI  30 1
M  END
> <IX>
1

> <NAME>
Cereblon_1EJ1_10.pdb

> <Score>
-20.755587

> <Natom>
30

> <Nflex>
1

> <Hbond>
-4.648472

> <Hphob>
-3.601975

> <VwInt>
-21.895911

> <Dsolv>
13.272071

> <SolEl>
5.628607

> <Eintl>
1.742247

> <RecConf>
ND

> <projPath>
Cereblon_maps/

> <NAME_>
Cereblon_1EJ1_10.pdb

$$$$
