Cereblon_6NUQ_2.pdb
  MOLSOFT 04032206293D

 30 32  0  0  1  0  0  0  0  0999 V2000
   75.6569   37.9075   39.7359 C   0  0  0  0  0  0  0  0  0  0  0  0
   74.9715   39.0125   39.2592 C   0  0  0  0  0  0  0  0  0  0  0  0
   75.2928   40.2615   39.7100 C   0  0  0  0  0  0  0  0  0  0  0  0
   74.4142   41.2277   39.0501 C   0  0  0  0  0  0  0  0  0  0  0  0
   74.4236   42.4213   39.3096 O   0  0  0  0  0  0  0  0  0  0  0  0
   73.6377   40.5144   38.1491 N   0  0  0  0  0  0  0  0  0  0  0  0
   72.6035   41.0454   37.2455 C   0  0  1  0  0  0  0  0  0  0  0  0
   71.2796   41.2587   37.9787 C   0  0  0  0  0  0  0  0  0  0  0  0
   70.9219   40.5781   38.9292 O   0  0  0  0  0  0  0  0  0  0  0  0
   70.4386   42.2076   37.4436 N   0  0  0  0  0  0  0  0  0  0  0  0
   70.6485   43.0446   36.3804 C   0  0  0  0  0  0  0  0  0  0  0  0
   69.8418   43.9141   36.0878 O   0  0  0  0  0  0  0  0  0  0  0  0
   71.9129   42.7967   35.5987 C   0  0  0  0  0  0  0  0  0  0  0  0
   73.0308   42.3138   36.5084 C   0  0  0  0  0  0  0  0  0  0  0  0
   73.8650   39.0838   38.2684 C   0  0  0  0  0  0  0  0  0  0  0  0
   76.2978   40.5001   40.6298 C   0  0  0  0  0  0  0  0  0  0  0  0
   76.9895   39.3974   41.1083 C   0  0  0  0  0  0  0  0  0  0  0  0
   76.6707   38.1170   40.6639 C   0  0  0  0  0  0  0  0  0  0  0  0
   75.4184   36.9053   39.3933 H   0  0  0  0  0  0  0  0  0  0  0  0
   72.4154   40.2683   36.4953 H   0  0  0  0  0  0  0  0  0  0  0  0
   69.5651   42.3496   37.9294 H   0  0  0  0  0  0  0  0  0  0  0  0
   71.6982   42.0659   34.8116 H   0  0  0  0  0  0  0  0  0  0  0  0
   72.2061   43.7345   35.1224 H   0  0  0  0  0  0  0  0  0  0  0  0
   73.9345   42.1235   35.9205 H   0  0  0  0  0  0  0  0  0  0  0  0
   73.2806   43.1122   37.2124 H   0  0  0  0  0  0  0  0  0  0  0  0
   74.1538   38.6716   37.2958 H   0  0  0  0  0  0  0  0  0  0  0  0
   72.9577   38.5991   38.6447 H   0  0  0  0  0  0  0  0  0  0  0  0
   76.5455   41.5049   40.9567 H   0  0  0  0  0  0  0  0  0  0  0  0
   77.7864   39.5364   41.8325 H   0  0  0  0  0  0  0  0  0  0  0  0
   77.2260   37.2673   41.0482 H   0  0  0  0  0  0  0  0  0  0  0  0
  1 19  1  0  0  0  0
  1 18  2  0  0  0  0
  1  2  1  0  0  0  0
  2  3  2  0  0  0  0
  2 15  1  0  0  0  0
  3 16  1  0  0  0  0
  3  4  1  0  0  0  0
  4  6  1  0  0  0  0
  4  5  2  0  0  0  0
  6 15  1  0  0  0  0
  7  6  1  0  0  0  0
  7 20  1  0  0  0  0
  7  8  1  0  0  0  0
  7 14  1  0  0  0  0
  8  9  2  0  0  0  0
  8 10  1  0  0  0  0
 10 21  1  0  0  0  0
 10 11  1  0  0  0  0
 11 12  2  0  0  0  0
 11 13  1  0  0  0  0
 13 22  1  0  0  0  0
 13 23  1  0  0  0  0
 13 14  1  0  0  0  0
 14 24  1  0  0  0  0
 14 25  1  0  0  0  0
 15 26  1  0  0  0  0
 15 27  1  0  0  0  0
 16 17  2  0  0  0  0
 16 28  1  0  0  0  0
 17 18  1  0  0  0  0
 17 29  1  0  0  0  0
 18 30  1  0  0  0  0
M  ZZC   1 c1
M  ZZC   2 c2
M  ZZC   3 c3
M  ZZC   4 c4
M  ZZC   5 o1
M  ZZC   6 n1
M  ZZC   7 c5
M  ZZC   8 c6
M  ZZC   9 o2
M  ZZC  10 n2
M  ZZC  11 c7
M  ZZC  12 o3
M  ZZC  13 c8
M  ZZC  14 c9
M  ZZC  15 c10
M  ZZC  16 c11
M  ZZC  17 c12
M  ZZC  18 c13
M  ZZC  19 h11
M  ZZC  20 h51
M  ZZC  21 h21
M  ZZC  22 h81
M  ZZC  23 h82
M  ZZC  24 h91
M  ZZC  25 h92
M  ZZC  26 h101
M  ZZC  27 h102
M  ZZC  28 h111
M  ZZC  29 h121
M  ZZC  30 h131
M  ZZM   1 37
M  ZZI   1 125
M  ZZM   2 37
M  ZZI   2 124
M  ZZM   3 37
M  ZZI   3 124
M  ZZM   4 3
M  ZZI   4 121
M  ZZM   5 7
M  ZZI   5 81
M  ZZM   6 10
M  ZZI   6 192
M  ZZM   7 1
M  ZZI   7 113
M  ZZM   8 3
M  ZZI   8 121
M  ZZM   9 7
M  ZZI   9 81
M  ZZM  10 10
M  ZZI  10 191
M  ZZM  11 3
M  ZZI  11 121
M  ZZM  12 7
M  ZZI  12 81
M  ZZM  13 1
M  ZZI  13 112
M  ZZM  14 1
M  ZZI  14 112
M  ZZM  15 1
M  ZZI  15 112
M  ZZM  16 37
M  ZZI  16 125
M  ZZM  17 37
M  ZZI  17 125
M  ZZM  18 37
M  ZZI  18 125
M  ZZM  19 5
M  ZZI  19 1
M  ZZM  20 5
M  ZZI  20 1
M  ZZM  21 28
M  ZZI  21 11
M  ZZM  22 5
M  ZZI  22 1
M  ZZM  23 5
M  ZZI  23 1
M  ZZM  24 5
M  ZZI  24 1
M  ZZM  25 5
M  ZZI  25 1
M  ZZM  26 5
M  ZZI  26 1
M  ZZM  27 5
M  ZZI  27 1
M  ZZM  28 5
M  ZZI  28 1
M  ZZM  29 5
M  ZZI  29 1
M  ZZM  30 5
M  ZZI  30 1
M  END
> <IX>
1

> <NAME>
Cereblon_6NUQ_2.pdb

> <Score>
-20.394746

> <Natom>
30

> <Nflex>
1

> <Hbond>
-4.6489

> <Hphob>
-3.567286

> <VwInt>
-21.88323

> <Dsolv>
13.230195

> <SolEl>
6.162407

> <Eintl>
1.750745

> <RecConf>
ND

> <projPath>
Cereblon_maps/

> <NAME_>
Cereblon_6NUQ_2.pdb

$$$$
