Cereblon_5V9O_9.pdb
  MOLSOFT 04032206273D

 31 33  0  0  1  0  0  0  0  0999 V2000
   78.8183   41.6890   43.8136 N   0  0  0  0  0  0  0  0  0  0  0  0
   78.9053   42.4359   42.6288 C   0  0  0  0  0  0  0  0  0  0  0  0
   78.1012   42.1655   41.5344 C   0  0  0  0  0  0  0  0  0  0  0  0
   77.1784   41.0558   41.3312 C   0  0  0  0  0  0  0  0  0  0  0  0
   76.9901   40.1798   42.1620 O   0  0  0  0  0  0  0  0  0  0  0  0
   76.6497   41.2129   40.0654 N   0  0  0  0  0  0  0  0  0  0  0  0
   77.1696   42.3332   39.4494 C   0  0  0  0  0  0  0  0  0  0  0  0
   76.9546   42.7549   38.3205 O   0  0  0  0  0  0  0  0  0  0  0  0
   78.0999   42.9314   40.4080 C   0  0  0  0  0  0  0  0  0  0  0  0
   78.9097   44.0418   40.2851 C   0  0  0  0  0  0  0  0  0  0  0  0
   79.7260   44.3442   41.3691 C   0  0  0  0  0  0  0  0  0  0  0  0
   79.7124   43.5650   42.5276 C   0  0  0  0  0  0  0  0  0  0  0  0
   75.6293   40.3751   39.4317 C   0  0  2  0  0  0  0  0  0  0  0  0
   74.2576   40.9513   39.7394 C   0  0  0  0  0  0  0  0  0  0  0  0
   74.0858   42.1318   39.9936 O   0  0  0  0  0  0  0  0  0  0  0  0
   73.1982   40.0833   39.6317 N   0  0  0  0  0  0  0  0  0  0  0  0
   73.2245   38.7452   39.3204 C   0  0  0  0  0  0  0  0  0  0  0  0
   72.2010   38.0894   39.2174 O   0  0  0  0  0  0  0  0  0  0  0  0
   74.5880   38.1502   39.0606 C   0  0  0  0  0  0  0  0  0  0  0  0
   75.6658   38.9011   39.8226 C   0  0  0  0  0  0  0  0  0  0  0  0
   79.5338   41.7953   44.5297 H   0  0  0  0  0  0  0  0  0  0  0  0
   78.3024   40.8078   43.7902 H   0  0  0  0  0  0  0  0  0  0  0  0
   78.9011   44.6482   39.3871 H   0  0  0  0  0  0  0  0  0  0  0  0
   80.3750   45.2115   41.3218 H   0  0  0  0  0  0  0  0  0  0  0  0
   80.3455   43.8479   43.3630 H   0  0  0  0  0  0  0  0  0  0  0  0
   75.7613   40.4741   38.3530 H   0  0  0  0  0  0  0  0  0  0  0  0
   72.2828   40.4835   39.7961 H   0  0  0  0  0  0  0  0  0  0  0  0
   74.5767   37.1021   39.3762 H   0  0  0  0  0  0  0  0  0  0  0  0
   74.7720   38.1777   37.9821 H   0  0  0  0  0  0  0  0  0  0  0  0
   75.4833   38.7731   40.8935 H   0  0  0  0  0  0  0  0  0  0  0  0
   76.6508   38.4716   39.6136 H   0  0  0  0  0  0  0  0  0  0  0  0
  1  2  1  0  0  0  0
  1 21  1  0  0  0  0
  1 22  1  0  0  0  0
  2  3  1  0  0  0  0
  2 12  2  0  0  0  0
  3  9  2  0  0  0  0
  3  4  1  0  0  0  0
  4  5  2  0  0  0  0
  4  6  1  0  0  0  0
  6  7  1  0  0  0  0
 13  6  1  0  0  0  0
  7  8  2  0  0  0  0
  7  9  1  0  0  0  0
  9 10  1  0  0  0  0
 10 23  1  0  0  0  0
 10 11  2  0  0  0  0
 11 12  1  0  0  0  0
 11 24  1  0  0  0  0
 12 25  1  0  0  0  0
 13 26  1  0  0  0  0
 13 14  1  0  0  0  0
 13 20  1  0  0  0  0
 14 15  2  0  0  0  0
 14 16  1  0  0  0  0
 16 27  1  0  0  0  0
 16 17  1  0  0  0  0
 17 18  2  0  0  0  0
 17 19  1  0  0  0  0
 19 28  1  0  0  0  0
 19 29  1  0  0  0  0
 19 20  1  0  0  0  0
 20 30  1  0  0  0  0
 20 31  1  0  0  0  0
M  ZZC   1 n1
M  ZZC   2 c1
M  ZZC   3 c2
M  ZZC   4 c3
M  ZZC   5 o1
M  ZZC   6 n2
M  ZZC   7 c4
M  ZZC   8 o2
M  ZZC   9 c5
M  ZZC  10 c6
M  ZZC  11 c7
M  ZZC  12 c8
M  ZZC  13 c9
M  ZZC  14 c10
M  ZZC  15 o3
M  ZZC  16 n3
M  ZZC  17 c11
M  ZZC  18 o4
M  ZZC  19 c12
M  ZZC  20 c13
M  ZZC  21 h11
M  ZZC  22 h12
M  ZZC  23 h61
M  ZZC  24 h71
M  ZZC  25 h81
M  ZZC  26 h91
M  ZZC  27 h31
M  ZZC  28 h121
M  ZZC  29 h122
M  ZZC  30 h131
M  ZZC  31 h132
M  ZZM   1 40
M  ZZI   1 224
M  ZZM   2 37
M  ZZI   2 124
M  ZZM   3 37
M  ZZI   3 124
M  ZZM   4 3
M  ZZI   4 121
M  ZZM   5 7
M  ZZI   5 81
M  ZZM   6 10
M  ZZI   6 192
M  ZZM   7 3
M  ZZI   7 121
M  ZZM   8 7
M  ZZI   8 81
M  ZZM   9 37
M  ZZI   9 124
M  ZZM  10 37
M  ZZI  10 125
M  ZZM  11 37
M  ZZI  11 125
M  ZZM  12 37
M  ZZI  12 125
M  ZZM  13 1
M  ZZI  13 113
M  ZZM  14 3
M  ZZI  14 121
M  ZZM  15 7
M  ZZI  15 81
M  ZZM  16 10
M  ZZI  16 191
M  ZZM  17 3
M  ZZI  17 121
M  ZZM  18 7
M  ZZI  18 81
M  ZZM  19 1
M  ZZI  19 112
M  ZZM  20 1
M  ZZI  20 112
M  ZZM  21 28
M  ZZI  21 11
M  ZZM  22 28
M  ZZI  22 11
M  ZZM  23 5
M  ZZI  23 1
M  ZZM  24 5
M  ZZI  24 1
M  ZZM  25 5
M  ZZI  25 1
M  ZZM  26 5
M  ZZI  26 1
M  ZZM  27 28
M  ZZI  27 11
M  ZZM  28 5
M  ZZI  28 1
M  ZZM  29 5
M  ZZI  29 1
M  ZZM  30 5
M  ZZI  30 1
M  ZZM  31 5
M  ZZI  31 1
M  END
> <IX>
1

> <NAME>
Cereblon_5V9O_9.pdb

> <Score>
-18.615866

> <Natom>
31

> <Nflex>
1

> <Hbond>
-3.678743

> <Hphob>
-3.54278

> <VwInt>
-24.196392

> <Dsolv>
15.188565

> <SolEl>
6.52672

> <Eintl>
1.603915

> <RecConf>
ND

> <projPath>
Cereblon_maps/

> <NAME_>
Cereblon_5V9O_9.pdb

$$$$
