Cereblon_1FKH_1.pdb
  MOLSOFT 04032206183D

 29 31  0  0  1  0  0  0  0  0999 V2000
   76.1151   38.0311   40.1295 C   0  0  0  0  0  0  0  0  0  0  0  0
   75.4155   39.1028   39.6054 C   0  0  0  0  0  0  0  0  0  0  0  0
   74.3524   39.1284   38.6008 C   0  0  0  0  0  0  0  0  0  0  0  0
   73.8920   38.1294   38.0676 O   0  0  0  0  0  0  0  0  0  0  0  0
   74.0230   40.4554   38.4099 N   0  0  0  0  0  0  0  0  0  0  0  0
   74.7483   41.2585   39.2700 C   0  0  0  0  0  0  0  0  0  0  0  0
   74.6695   42.4608   39.4644 O   0  0  0  0  0  0  0  0  0  0  0  0
   75.6649   40.3827   39.9930 C   0  0  0  0  0  0  0  0  0  0  0  0
   76.6373   40.6939   40.9267 C   0  0  0  0  0  0  0  0  0  0  0  0
   77.3487   39.6318   41.4710 C   0  0  0  0  0  0  0  0  0  0  0  0
   77.0926   38.3189   41.0759 C   0  0  0  0  0  0  0  0  0  0  0  0
   72.9789   40.8996   37.4737 C   0  0  1  0  0  0  0  0  0  0  0  0
   71.6717   41.1409   38.2220 C   0  0  0  0  0  0  0  0  0  0  0  0
   71.3729   40.5549   39.2523 O   0  0  0  0  0  0  0  0  0  0  0  0
   70.7919   42.0176   37.6283 N   0  0  0  0  0  0  0  0  0  0  0  0
   70.9758   42.8061   36.5204 C   0  0  0  0  0  0  0  0  0  0  0  0
   70.1688   43.6659   36.1993 O   0  0  0  0  0  0  0  0  0  0  0  0
   72.2277   42.5223   35.7287 C   0  0  0  0  0  0  0  0  0  0  0  0
   73.3672   42.1302   36.6545 C   0  0  0  0  0  0  0  0  0  0  0  0
   75.9118   37.0112   39.8170 H   0  0  0  0  0  0  0  0  0  0  0  0
   76.8470   41.7183   41.2183 H   0  0  0  0  0  0  0  0  0  0  0  0
   78.1168   39.8281   42.2132 H   0  0  0  0  0  0  0  0  0  0  0  0
   77.6662   37.5087   41.5154 H   0  0  0  0  0  0  0  0  0  0  0  0
   72.7806   40.0692   36.7862 H   0  0  0  0  0  0  0  0  0  0  0  0
   69.9364   42.1885   38.1347 H   0  0  0  0  0  0  0  0  0  0  0  0
   72.0110   41.7286   35.0058 H   0  0  0  0  0  0  0  0  0  0  0  0
   72.4954   43.4244   35.1728 H   0  0  0  0  0  0  0  0  0  0  0  0
   73.5993   42.9788   37.3043 H   0  0  0  0  0  0  0  0  0  0  0  0
   74.2712   41.9261   36.0729 H   0  0  0  0  0  0  0  0  0  0  0  0
  1 20  1  0  0  0  0
  1  2  1  0  0  0  0
  1 11  2  0  0  0  0
  2  3  1  0  0  0  0
  2  8  2  0  0  0  0
  3  4  2  0  0  0  0
  3  5  1  0  0  0  0
  5  6  1  0  0  0  0
 12  5  1  0  0  0  0
  6  7  2  0  0  0  0
  6  8  1  0  0  0  0
  8  9  1  0  0  0  0
  9 21  1  0  0  0  0
  9 10  2  0  0  0  0
 10 22  1  0  0  0  0
 10 11  1  0  0  0  0
 11 23  1  0  0  0  0
 12 24  1  0  0  0  0
 12 13  1  0  0  0  0
 12 19  1  0  0  0  0
 13 14  2  0  0  0  0
 13 15  1  0  0  0  0
 15 25  1  0  0  0  0
 15 16  1  0  0  0  0
 16 17  2  0  0  0  0
 16 18  1  0  0  0  0
 18 26  1  0  0  0  0
 18 27  1  0  0  0  0
 18 19  1  0  0  0  0
 19 28  1  0  0  0  0
 19 29  1  0  0  0  0
M  ZZC   1 c1
M  ZZC   2 c2
M  ZZC   3 c3
M  ZZC   4 o1
M  ZZC   5 n1
M  ZZC   6 c4
M  ZZC   7 o2
M  ZZC   8 c5
M  ZZC   9 c6
M  ZZC  10 c7
M  ZZC  11 c8
M  ZZC  12 c9
M  ZZC  13 c10
M  ZZC  14 o3
M  ZZC  15 n2
M  ZZC  16 c11
M  ZZC  17 o4
M  ZZC  18 c12
M  ZZC  19 c13
M  ZZC  20 h11
M  ZZC  21 h61
M  ZZC  22 h71
M  ZZC  23 h81
M  ZZC  24 h91
M  ZZC  25 h21
M  ZZC  26 h121
M  ZZC  27 h122
M  ZZC  28 h131
M  ZZC  29 h132
M  ZZM   1 37
M  ZZI   1 125
M  ZZM   2 37
M  ZZI   2 124
M  ZZM   3 3
M  ZZI   3 121
M  ZZM   4 7
M  ZZI   4 81
M  ZZM   5 10
M  ZZI   5 192
M  ZZM   6 3
M  ZZI   6 121
M  ZZM   7 7
M  ZZI   7 81
M  ZZM   8 37
M  ZZI   8 124
M  ZZM   9 37
M  ZZI   9 125
M  ZZM  10 37
M  ZZI  10 125
M  ZZM  11 37
M  ZZI  11 125
M  ZZM  12 1
M  ZZI  12 113
M  ZZM  13 3
M  ZZI  13 121
M  ZZM  14 7
M  ZZI  14 81
M  ZZM  15 10
M  ZZI  15 191
M  ZZM  16 3
M  ZZI  16 121
M  ZZM  17 7
M  ZZI  17 81
M  ZZM  18 1
M  ZZI  18 112
M  ZZM  19 1
M  ZZI  19 112
M  ZZM  20 5
M  ZZI  20 1
M  ZZM  21 5
M  ZZI  21 1
M  ZZM  22 5
M  ZZI  22 1
M  ZZM  23 5
M  ZZI  23 1
M  ZZM  24 5
M  ZZI  24 1
M  ZZM  25 28
M  ZZI  25 11
M  ZZM  26 5
M  ZZI  26 1
M  ZZM  27 5
M  ZZI  27 1
M  ZZM  28 5
M  ZZI  28 1
M  ZZM  29 5
M  ZZI  29 1
M  END
> <IX>
1

> <NAME>
Cereblon_1FKH_1.pdb

> <Score>
-17.795211

> <Natom>
29

> <Nflex>
1

> <Hbond>
-3.581107

> <Hphob>
-3.591969

> <VwInt>
-22.882638

> <Dsolv>
13.443938

> <SolEl>
8.409351

> <Eintl>
0.535205

> <RecConf>
ND

> <projPath>
Cereblon_maps/

> <NAME_>
Cereblon_1FKH_1.pdb

$$$$
