Cereblon_6Y7K_1.pdb
  MOLSOFT 04032206303D

 29 31  0  0  1  0  0  0  0  0999 V2000
   79.0050   42.4914   42.6714 C   0  0  0  0  0  0  0  0  0  0  0  0
   78.1854   42.1967   41.5962 C   0  0  0  0  0  0  0  0  0  0  0  0
   77.2673   41.0788   41.4114 C   0  0  0  0  0  0  0  0  0  0  0  0
   77.0877   40.2185   42.2596 O   0  0  0  0  0  0  0  0  0  0  0  0
   76.7271   41.2203   40.1463 N   0  0  0  0  0  0  0  0  0  0  0  0
   77.2230   42.3473   39.5227 C   0  0  0  0  0  0  0  0  0  0  0  0
   76.9872   42.7647   38.3963 O   0  0  0  0  0  0  0  0  0  0  0  0
   78.1581   42.9592   40.4673 C   0  0  0  0  0  0  0  0  0  0  0  0
   78.9571   44.0751   40.3245 C   0  0  0  0  0  0  0  0  0  0  0  0
   79.8005   44.3845   41.3857 C   0  0  0  0  0  0  0  0  0  0  0  0
   79.8248   43.6064   42.5436 C   0  0  0  0  0  0  0  0  0  0  0  0
   75.7190   40.3650   39.5138 C   0  0  2  0  0  0  0  0  0  0  0  0
   74.3391   40.9336   39.8031 C   0  0  0  0  0  0  0  0  0  0  0  0
   74.1522   42.1199   40.0167 O   0  0  0  0  0  0  0  0  0  0  0  0
   73.2887   40.0519   39.7266 N   0  0  0  0  0  0  0  0  0  0  0  0
   73.3270   38.7062   39.4552 C   0  0  0  0  0  0  0  0  0  0  0  0
   72.3112   38.0328   39.3981 O   0  0  0  0  0  0  0  0  0  0  0  0
   74.6918   38.1242   39.1798 C   0  0  0  0  0  0  0  0  0  0  0  0
   75.7740   38.8945   39.9157 C   0  0  0  0  0  0  0  0  0  0  0  0
   79.0168   41.8767   43.5671 H   0  0  0  0  0  0  0  0  0  0  0  0
   78.9263   44.6762   39.4234 H   0  0  0  0  0  0  0  0  0  0  0  0
   80.4501   45.2492   41.3148 H   0  0  0  0  0  0  0  0  0  0  0  0
   80.4939   43.8745   43.3563 H   0  0  0  0  0  0  0  0  0  0  0  0
   75.8582   40.4526   38.4344 H   0  0  0  0  0  0  0  0  0  0  0  0
   72.3703   40.4460   39.8891 H   0  0  0  0  0  0  0  0  0  0  0  0
   74.6978   37.0788   39.5046 H   0  0  0  0  0  0  0  0  0  0  0  0
   74.8528   38.1452   38.0975 H   0  0  0  0  0  0  0  0  0  0  0  0
   76.7597   38.4735   39.6920 H   0  0  0  0  0  0  0  0  0  0  0  0
   75.6128   38.7751   40.9909 H   0  0  0  0  0  0  0  0  0  0  0  0
  1 20  1  0  0  0  0
  1  2  1  0  0  0  0
  1 11  2  0  0  0  0
  2  3  1  0  0  0  0
  2  8  2  0  0  0  0
  3  4  2  0  0  0  0
  3  5  1  0  0  0  0
  5  6  1  0  0  0  0
 12  5  1  0  0  0  0
  6  7  2  0  0  0  0
  6  8  1  0  0  0  0
  8  9  1  0  0  0  0
  9 21  1  0  0  0  0
  9 10  2  0  0  0  0
 10 22  1  0  0  0  0
 10 11  1  0  0  0  0
 11 23  1  0  0  0  0
 12 24  1  0  0  0  0
 12 13  1  0  0  0  0
 12 19  1  0  0  0  0
 13 14  2  0  0  0  0
 13 15  1  0  0  0  0
 15 25  1  0  0  0  0
 15 16  1  0  0  0  0
 16 17  2  0  0  0  0
 16 18  1  0  0  0  0
 18 26  1  0  0  0  0
 18 27  1  0  0  0  0
 18 19  1  0  0  0  0
 19 28  1  0  0  0  0
 19 29  1  0  0  0  0
M  ZZC   1 c1
M  ZZC   2 c2
M  ZZC   3 c3
M  ZZC   4 o1
M  ZZC   5 n1
M  ZZC   6 c4
M  ZZC   7 o2
M  ZZC   8 c5
M  ZZC   9 c6
M  ZZC  10 c7
M  ZZC  11 c8
M  ZZC  12 c9
M  ZZC  13 c10
M  ZZC  14 o3
M  ZZC  15 n2
M  ZZC  16 c11
M  ZZC  17 o4
M  ZZC  18 c12
M  ZZC  19 c13
M  ZZC  20 h11
M  ZZC  21 h61
M  ZZC  22 h71
M  ZZC  23 h81
M  ZZC  24 h91
M  ZZC  25 h21
M  ZZC  26 h121
M  ZZC  27 h122
M  ZZC  28 h131
M  ZZC  29 h132
M  ZZM   1 37
M  ZZI   1 125
M  ZZM   2 37
M  ZZI   2 124
M  ZZM   3 3
M  ZZI   3 121
M  ZZM   4 7
M  ZZI   4 81
M  ZZM   5 10
M  ZZI   5 192
M  ZZM   6 3
M  ZZI   6 121
M  ZZM   7 7
M  ZZI   7 81
M  ZZM   8 37
M  ZZI   8 124
M  ZZM   9 37
M  ZZI   9 125
M  ZZM  10 37
M  ZZI  10 125
M  ZZM  11 37
M  ZZI  11 125
M  ZZM  12 1
M  ZZI  12 113
M  ZZM  13 3
M  ZZI  13 121
M  ZZM  14 7
M  ZZI  14 81
M  ZZM  15 10
M  ZZI  15 191
M  ZZM  16 3
M  ZZI  16 121
M  ZZM  17 7
M  ZZI  17 81
M  ZZM  18 1
M  ZZI  18 112
M  ZZM  19 1
M  ZZI  19 112
M  ZZM  20 5
M  ZZI  20 1
M  ZZM  21 5
M  ZZI  21 1
M  ZZM  22 5
M  ZZI  22 1
M  ZZM  23 5
M  ZZI  23 1
M  ZZM  24 5
M  ZZI  24 1
M  ZZM  25 28
M  ZZI  25 11
M  ZZM  26 5
M  ZZI  26 1
M  ZZM  27 5
M  ZZI  27 1
M  ZZM  28 5
M  ZZI  28 1
M  ZZM  29 5
M  ZZI  29 1
M  END
> <IX>
1

> <NAME>
Cereblon_6Y7K_1.pdb

> <Score>
-19.414198

> <Natom>
29

> <Nflex>
1

> <Hbond>
-3.369821

> <Hphob>
-3.552987

> <VwInt>
-22.703156

> <Dsolv>
12.033202

> <SolEl>
5.57013

> <Eintl>
1.489865

> <RecConf>
ND

> <projPath>
Cereblon_maps/

> <NAME_>
Cereblon_6Y7K_1.pdb

$$$$
