Cereblon_5VBP_4.pdb
  MOLSOFT 04032206283D

 30 32  0  0  0  0  0  0  0  0999 V2000
   77.9445   40.6613   43.7201 N   0  0  0  0  0  0  0  0  0  0  0  0
   78.6412   41.7159   43.1076 C   0  0  0  0  0  0  0  0  0  0  0  0
   78.3013   42.2236   41.8463 C   0  0  0  0  0  0  0  0  0  0  0  0
   77.2595   41.6099   41.0081 C   0  0  0  0  0  0  0  0  0  0  0  0
   76.7727   40.5465   41.3765 O   0  0  0  0  0  0  0  0  0  0  0  0
   76.9296   42.3129   39.8471 N   0  0  0  0  0  0  0  0  0  0  0  0
   75.8738   41.9662   38.9915 C   0  0  0  0  0  0  0  0  0  0  0  0
   75.7297   42.5057   37.7620 C   0  0  0  0  0  0  0  0  0  0  0  0
   76.4354   43.2743   37.0754 O   0  5  0  0  0  0  0  0  0  0  0  0
   74.6606   42.1634   36.9943 N   0  0  0  0  0  0  0  0  0  0  0  0
   73.5779   41.4049   37.3504 C   0  0  0  0  0  0  0  0  0  0  0  0
   72.6897   41.1104   36.5644 O   0  0  0  0  0  0  0  0  0  0  0  0
   73.5113   41.0472   38.8064 C   0  0  0  0  0  0  0  0  0  0  0  0
   74.8788   40.9330   39.4523 C   0  0  0  0  0  0  0  0  0  0  0  0
   77.6475   43.4172   39.4366 N   0  0  0  0  0  0  0  0  0  0  0  0
   78.6299   43.8753   40.0756 N   0  0  0  0  0  0  0  0  0  0  0  0
   78.9493   43.3203   41.3163 C   0  0  0  0  0  0  0  0  0  0  0  0
   79.9606   43.9231   42.0478 C   0  0  0  0  0  0  0  0  0  0  0  0
   80.2965   43.4556   43.3023 C   0  0  0  0  0  0  0  0  0  0  0  0
   79.6225   42.3736   43.8320 C   0  0  0  0  0  0  0  0  0  0  0  0
   78.3904   40.1884   44.5033 H   0  0  0  0  0  0  0  0  0  0  0  0
   77.3129   40.1100   43.1378 H   0  0  0  0  0  0  0  0  0  0  0  0
   74.6953   42.5305   36.0543 H   0  0  0  0  0  0  0  0  0  0  0  0
   72.9246   41.8226   39.3091 H   0  0  0  0  0  0  0  0  0  0  0  0
   72.9676   40.1036   38.9177 H   0  0  0  0  0  0  0  0  0  0  0  0
   75.2913   39.9357   39.2616 H   0  0  0  0  0  0  0  0  0  0  0  0
   74.7021   41.0146   40.5261 H   0  0  0  0  0  0  0  0  0  0  0  0
   80.4805   44.7852   41.6424 H   0  0  0  0  0  0  0  0  0  0  0  0
   81.0758   43.9443   43.8800 H   0  0  0  0  0  0  0  0  0  0  0  0
   79.8760   42.0365   44.8323 H   0  0  0  0  0  0  0  0  0  0  0  0
  1  2  1  0  0  0  0
  1 21  1  0  0  0  0
  1 22  1  0  0  0  0
  2  3  1  0  0  0  0
  2 20  2  0  0  0  0
  3  4  1  0  0  0  0
  3 17  2  0  0  0  0
  4  6  1  0  0  0  0
  4  5  2  0  0  0  0
  6  7  1  0  0  0  0
  6 15  1  0  0  0  0
  7  8  2  0  0  0  0
  7 14  1  0  0  0  0
  8  9  1  0  0  0  0
  8 10  1  0  0  0  0
 10 11  1  0  0  0  0
 10 23  1  0  0  0  0
 11 13  1  0  0  0  0
 11 12  2  0  0  0  0
 13 14  1  0  0  0  0
 13 24  1  0  0  0  0
 13 25  1  0  0  0  0
 14 26  1  0  0  0  0
 14 27  1  0  0  0  0
 15 16  2  0  0  0  0
 16 17  1  0  0  0  0
 17 18  1  0  0  0  0
 18 19  2  0  0  0  0
 18 28  1  0  0  0  0
 19 20  1  0  0  0  0
 19 29  1  0  0  0  0
 20 30  1  0  0  0  0
M  ZZC   1 n1
M  ZZC   2 c1
M  ZZC   3 c2
M  ZZC   4 c3
M  ZZC   5 o1
M  ZZC   6 n2
M  ZZC   7 c4
M  ZZC   8 c5
M  ZZC   9 o2
M  ZZC  10 n3
M  ZZC  11 c6
M  ZZC  12 o3
M  ZZC  13 c7
M  ZZC  14 c8
M  ZZC  15 n4
M  ZZC  16 n5
M  ZZC  17 c9
M  ZZC  18 c10
M  ZZC  19 c11
M  ZZC  20 c12
M  ZZC  21 h11
M  ZZC  22 h12
M  ZZC  23 h31
M  ZZC  24 h71
M  ZZC  25 h72
M  ZZC  26 h81
M  ZZC  27 h82
M  ZZC  28 h101
M  ZZC  29 h111
M  ZZC  30 h121
M  ZZM   1 40
M  ZZI   1 224
M  ZZM   2 37
M  ZZI   2 124
M  ZZM   3 37
M  ZZI   3 124
M  ZZM   4 3
M  ZZI   4 121
M  ZZM   5 7
M  ZZI   5 81
M  ZZM   6 10
M  ZZI   6 191
M  ZZM   7 2
M  ZZI   7 120
M  ZZM   8 2
M  ZZI   8 120
M  ZZM   9 35
M  ZZI   9 53
M  ZZM  10 10
M  ZZI  10 191
M  ZZM  11 3
M  ZZI  11 121
M  ZZM  12 7
M  ZZI  12 81
M  ZZM  13 1
M  ZZI  13 112
M  ZZM  14 1
M  ZZI  14 112
M  ZZM  15 9
M  ZZI  15 220
M  ZZM  16 9
M  ZZI  16 220
M  ZZM  17 37
M  ZZI  17 124
M  ZZM  18 37
M  ZZI  18 125
M  ZZM  19 37
M  ZZI  19 125
M  ZZM  20 37
M  ZZI  20 125
M  ZZM  21 28
M  ZZI  21 11
M  ZZM  22 28
M  ZZI  22 11
M  ZZM  23 28
M  ZZI  23 11
M  ZZM  24 5
M  ZZI  24 1
M  ZZM  25 5
M  ZZI  25 1
M  ZZM  26 5
M  ZZI  26 1
M  ZZM  27 5
M  ZZI  27 1
M  ZZM  28 5
M  ZZI  28 1
M  ZZM  29 5
M  ZZI  29 1
M  ZZM  30 5
M  ZZI  30 1
M  CHG  1   9  -1
M  END
> <IX>
1

> <NAME>
Cereblon_5VBP_4.pdb

> <Score>
-21.2374

> <Natom>
30

> <Nflex>
0

> <Hbond>
-2.599358

> <Hphob>
-4.063967

> <VwInt>
-31.556775

> <Dsolv>
18.263001

> <SolEl>
7.64323

> <Eintl>
1.461377

> <RecConf>
ND

> <projPath>
Cereblon_maps/

> <NAME_>
Cereblon_5VBP_4.pdb

$$$$
