Cereblon_6VS3_4.pdb
  MOLSOFT 04032206293D

 30 32  0  0  1  0  0  0  0  0999 V2000
   77.8686   41.4138   42.1555 C   0  0  0  0  0  0  0  0  0  0  0  0
   77.1757   41.4030   40.9542 C   0  0  0  0  0  0  0  0  0  0  0  0
   77.4246   42.3564   40.0042 C   0  0  0  0  0  0  0  0  0  0  0  0
   76.5362   42.1080   38.8619 C   0  0  0  0  0  0  0  0  0  0  0  0
   76.5302   42.7588   37.8264 O   0  0  0  0  0  0  0  0  0  0  0  0
   75.7289   41.0400   39.2077 N   0  0  0  0  0  0  0  0  0  0  0  0
   74.4376   40.7705   38.5518 C   0  0  2  0  0  0  0  0  0  0  0  0
   73.3552   41.5468   39.2779 C   0  0  0  0  0  0  0  0  0  0  0  0
   73.6100   42.4440   40.0621 O   0  0  0  0  0  0  0  0  0  0  0  0
   72.0609   41.2100   38.9677 N   0  0  0  0  0  0  0  0  0  0  0  0
   71.6233   40.1375   38.2304 C   0  0  0  0  0  0  0  0  0  0  0  0
   70.4387   39.9845   37.9691 O   0  0  0  0  0  0  0  0  0  0  0  0
   72.7022   39.1949   37.7316 C   0  0  0  0  0  0  0  0  0  0  0  0
   74.0001   39.3119   38.5269 C   0  0  0  0  0  0  0  0  0  0  0  0
   76.1086   40.4787   40.4909 C   0  0  0  0  0  0  0  0  0  0  0  0
   78.3634   43.3603   40.1756 C   0  0  0  0  0  0  0  0  0  0  0  0
   79.0737   43.3665   41.3693 C   0  0  0  0  0  0  0  0  0  0  0  0
   78.8210   42.4080   42.3504 C   0  0  0  0  0  0  0  0  0  0  0  0
   77.6737   40.6773   42.9294 H   0  0  0  0  0  0  0  0  0  0  0  0
   74.4800   41.1864   37.5387 H   0  0  0  0  0  0  0  0  0  0  0  0
   71.3481   41.8254   39.3403 H   0  0  0  0  0  0  0  0  0  0  0  0
   72.3231   38.1700   37.7942 H   0  0  0  0  0  0  0  0  0  0  0  0
   72.8813   39.4229   36.6752 H   0  0  0  0  0  0  0  0  0  0  0  0
   73.8415   38.9415   39.5466 H   0  0  0  0  0  0  0  0  0  0  0  0
   74.7725   38.6801   38.0799 H   0  0  0  0  0  0  0  0  0  0  0  0
   76.4714   39.4547   40.3510 H   0  0  0  0  0  0  0  0  0  0  0  0
   75.2550   40.5089   41.1614 H   0  0  0  0  0  0  0  0  0  0  0  0
   78.5370   44.1119   39.4127 H   0  0  0  0  0  0  0  0  0  0  0  0
   79.8194   44.1348   41.5469 H   0  0  0  0  0  0  0  0  0  0  0  0
   79.3766   42.4380   43.2827 H   0  0  0  0  0  0  0  0  0  0  0  0
  1 19  1  0  0  0  0
  1 18  2  0  0  0  0
  1  2  1  0  0  0  0
  2  3  2  0  0  0  0
  2 15  1  0  0  0  0
  3 16  1  0  0  0  0
  3  4  1  0  0  0  0
  4  6  1  0  0  0  0
  4  5  2  0  0  0  0
  6 15  1  0  0  0  0
  7  6  1  0  0  0  0
  7 20  1  0  0  0  0
  7  8  1  0  0  0  0
  7 14  1  0  0  0  0
  8  9  2  0  0  0  0
  8 10  1  0  0  0  0
 10 21  1  0  0  0  0
 10 11  1  0  0  0  0
 11 12  2  0  0  0  0
 11 13  1  0  0  0  0
 13 22  1  0  0  0  0
 13 23  1  0  0  0  0
 13 14  1  0  0  0  0
 14 24  1  0  0  0  0
 14 25  1  0  0  0  0
 15 26  1  0  0  0  0
 15 27  1  0  0  0  0
 16 17  2  0  0  0  0
 16 28  1  0  0  0  0
 17 18  1  0  0  0  0
 17 29  1  0  0  0  0
 18 30  1  0  0  0  0
M  ZZC   1 c1
M  ZZC   2 c2
M  ZZC   3 c3
M  ZZC   4 c4
M  ZZC   5 o1
M  ZZC   6 n1
M  ZZC   7 c5
M  ZZC   8 c6
M  ZZC   9 o2
M  ZZC  10 n2
M  ZZC  11 c7
M  ZZC  12 o3
M  ZZC  13 c8
M  ZZC  14 c9
M  ZZC  15 c10
M  ZZC  16 c11
M  ZZC  17 c12
M  ZZC  18 c13
M  ZZC  19 h11
M  ZZC  20 h51
M  ZZC  21 h21
M  ZZC  22 h81
M  ZZC  23 h82
M  ZZC  24 h91
M  ZZC  25 h92
M  ZZC  26 h101
M  ZZC  27 h102
M  ZZC  28 h111
M  ZZC  29 h121
M  ZZC  30 h131
M  ZZM   1 37
M  ZZI   1 125
M  ZZM   2 37
M  ZZI   2 124
M  ZZM   3 37
M  ZZI   3 124
M  ZZM   4 3
M  ZZI   4 121
M  ZZM   5 7
M  ZZI   5 81
M  ZZM   6 10
M  ZZI   6 192
M  ZZM   7 1
M  ZZI   7 113
M  ZZM   8 3
M  ZZI   8 121
M  ZZM   9 7
M  ZZI   9 81
M  ZZM  10 10
M  ZZI  10 191
M  ZZM  11 3
M  ZZI  11 121
M  ZZM  12 7
M  ZZI  12 81
M  ZZM  13 1
M  ZZI  13 112
M  ZZM  14 1
M  ZZI  14 112
M  ZZM  15 1
M  ZZI  15 112
M  ZZM  16 37
M  ZZI  16 125
M  ZZM  17 37
M  ZZI  17 125
M  ZZM  18 37
M  ZZI  18 125
M  ZZM  19 5
M  ZZI  19 1
M  ZZM  20 5
M  ZZI  20 1
M  ZZM  21 28
M  ZZI  21 11
M  ZZM  22 5
M  ZZI  22 1
M  ZZM  23 5
M  ZZI  23 1
M  ZZM  24 5
M  ZZI  24 1
M  ZZM  25 5
M  ZZI  25 1
M  ZZM  26 5
M  ZZI  26 1
M  ZZM  27 5
M  ZZI  27 1
M  ZZM  28 5
M  ZZI  28 1
M  ZZM  29 5
M  ZZI  29 1
M  ZZM  30 5
M  ZZI  30 1
M  END
> <IX>
1

> <NAME>
Cereblon_6VS3_4.pdb

> <Score>
-15.285556

> <Natom>
30

> <Nflex>
1

> <Hbond>
-4.223158

> <Hphob>
-3.710823

> <VwInt>
-19.375928

> <Dsolv>
13.774895

> <SolEl>
6.58861

> <Eintl>
3.3026

> <RecConf>
ND

> <projPath>
Cereblon_maps/

> <NAME_>
Cereblon_6VS3_4.pdb

$$$$
