Cereblon_4MXO_2.pdb
  MOLSOFT 04032206233D

 31 33  0  0  1  0  0  0  0  0999 V2000
   78.8124   41.6773   43.8187 N   0  0  0  0  0  0  0  0  0  0  0  0
   78.9070   42.4218   42.6324 C   0  0  0  0  0  0  0  0  0  0  0  0
   78.1006   42.1571   41.5382 C   0  0  0  0  0  0  0  0  0  0  0  0
   77.1791   41.0470   41.3310 C   0  0  0  0  0  0  0  0  0  0  0  0
   76.9975   40.1644   42.1566 O   0  0  0  0  0  0  0  0  0  0  0  0
   76.6454   41.2111   40.0682 N   0  0  0  0  0  0  0  0  0  0  0  0
   77.1666   42.3320   39.4546 C   0  0  0  0  0  0  0  0  0  0  0  0
   76.9536   42.7548   38.3257 O   0  0  0  0  0  0  0  0  0  0  0  0
   78.0978   42.9271   40.4146 C   0  0  0  0  0  0  0  0  0  0  0  0
   78.9092   44.0366   40.2945 C   0  0  0  0  0  0  0  0  0  0  0  0
   79.7249   44.3362   41.3795 C   0  0  0  0  0  0  0  0  0  0  0  0
   79.7123   43.5526   42.5349 C   0  0  0  0  0  0  0  0  0  0  0  0
   75.6255   40.3751   39.4311 C   0  0  2  0  0  0  0  0  0  0  0  0
   74.2542   40.9538   39.7360 C   0  0  0  0  0  0  0  0  0  0  0  0
   74.0838   42.1337   39.9943 O   0  0  0  0  0  0  0  0  0  0  0  0
   73.1932   40.0894   39.6194 N   0  0  0  0  0  0  0  0  0  0  0  0
   73.2176   38.7516   39.3073 C   0  0  0  0  0  0  0  0  0  0  0  0
   72.1923   38.0994   39.1972 O   0  0  0  0  0  0  0  0  0  0  0  0
   74.5805   38.1514   39.0568 C   0  0  0  0  0  0  0  0  0  0  0  0
   75.6581   38.9005   39.8205 C   0  0  0  0  0  0  0  0  0  0  0  0
   79.5524   41.7608   44.5122 H   0  0  0  0  0  0  0  0  0  0  0  0
   78.3209   40.7831   43.7766 H   0  0  0  0  0  0  0  0  0  0  0  0
   78.9018   44.6451   39.3980 H   0  0  0  0  0  0  0  0  0  0  0  0
   80.3727   45.2046   41.3356 H   0  0  0  0  0  0  0  0  0  0  0  0
   80.3434   43.8346   43.3724 H   0  0  0  0  0  0  0  0  0  0  0  0
   75.7603   40.4748   38.3528 H   0  0  0  0  0  0  0  0  0  0  0  0
   72.2779   40.4917   39.7791 H   0  0  0  0  0  0  0  0  0  0  0  0
   74.5640   37.1041   39.3747 H   0  0  0  0  0  0  0  0  0  0  0  0
   74.7696   38.1754   37.9792 H   0  0  0  0  0  0  0  0  0  0  0  0
   75.4728   38.7729   40.8909 H   0  0  0  0  0  0  0  0  0  0  0  0
   76.6426   38.4687   39.6138 H   0  0  0  0  0  0  0  0  0  0  0  0
  1  2  1  0  0  0  0
  1 21  1  0  0  0  0
  1 22  1  0  0  0  0
  2  3  1  0  0  0  0
  2 12  2  0  0  0  0
  3  9  2  0  0  0  0
  3  4  1  0  0  0  0
  4  5  2  0  0  0  0
  4  6  1  0  0  0  0
  6  7  1  0  0  0  0
 13  6  1  0  0  0  0
  7  8  2  0  0  0  0
  7  9  1  0  0  0  0
  9 10  1  0  0  0  0
 10 23  1  0  0  0  0
 10 11  2  0  0  0  0
 11 12  1  0  0  0  0
 11 24  1  0  0  0  0
 12 25  1  0  0  0  0
 13 26  1  0  0  0  0
 13 14  1  0  0  0  0
 13 20  1  0  0  0  0
 14 15  2  0  0  0  0
 14 16  1  0  0  0  0
 16 27  1  0  0  0  0
 16 17  1  0  0  0  0
 17 18  2  0  0  0  0
 17 19  1  0  0  0  0
 19 28  1  0  0  0  0
 19 29  1  0  0  0  0
 19 20  1  0  0  0  0
 20 30  1  0  0  0  0
 20 31  1  0  0  0  0
M  ZZC   1 n1
M  ZZC   2 c1
M  ZZC   3 c2
M  ZZC   4 c3
M  ZZC   5 o1
M  ZZC   6 n2
M  ZZC   7 c4
M  ZZC   8 o2
M  ZZC   9 c5
M  ZZC  10 c6
M  ZZC  11 c7
M  ZZC  12 c8
M  ZZC  13 c9
M  ZZC  14 c10
M  ZZC  15 o3
M  ZZC  16 n3
M  ZZC  17 c11
M  ZZC  18 o4
M  ZZC  19 c12
M  ZZC  20 c13
M  ZZC  21 h11
M  ZZC  22 h12
M  ZZC  23 h61
M  ZZC  24 h71
M  ZZC  25 h81
M  ZZC  26 h91
M  ZZC  27 h31
M  ZZC  28 h121
M  ZZC  29 h122
M  ZZC  30 h131
M  ZZC  31 h132
M  ZZM   1 40
M  ZZI   1 224
M  ZZM   2 37
M  ZZI   2 124
M  ZZM   3 37
M  ZZI   3 124
M  ZZM   4 3
M  ZZI   4 121
M  ZZM   5 7
M  ZZI   5 81
M  ZZM   6 10
M  ZZI   6 192
M  ZZM   7 3
M  ZZI   7 121
M  ZZM   8 7
M  ZZI   8 81
M  ZZM   9 37
M  ZZI   9 124
M  ZZM  10 37
M  ZZI  10 125
M  ZZM  11 37
M  ZZI  11 125
M  ZZM  12 37
M  ZZI  12 125
M  ZZM  13 1
M  ZZI  13 113
M  ZZM  14 3
M  ZZI  14 121
M  ZZM  15 7
M  ZZI  15 81
M  ZZM  16 10
M  ZZI  16 191
M  ZZM  17 3
M  ZZI  17 121
M  ZZM  18 7
M  ZZI  18 81
M  ZZM  19 1
M  ZZI  19 112
M  ZZM  20 1
M  ZZI  20 112
M  ZZM  21 28
M  ZZI  21 11
M  ZZM  22 28
M  ZZI  22 11
M  ZZM  23 5
M  ZZI  23 1
M  ZZM  24 5
M  ZZI  24 1
M  ZZM  25 5
M  ZZI  25 1
M  ZZM  26 5
M  ZZI  26 1
M  ZZM  27 28
M  ZZI  27 11
M  ZZM  28 5
M  ZZI  28 1
M  ZZM  29 5
M  ZZI  29 1
M  ZZM  30 5
M  ZZI  30 1
M  ZZM  31 5
M  ZZI  31 1
M  END
> <IX>
1

> <NAME>
Cereblon_4MXO_2.pdb

> <Score>
-18.860124

> <Natom>
31

> <Nflex>
1

> <Hbond>
-3.680057

> <Hphob>
-3.57611

> <VwInt>
-24.211399

> <Dsolv>
15.038927

> <SolEl>
6.314968

> <Eintl>
1.684563

> <RecConf>
ND

> <projPath>
Cereblon_maps/

> <NAME_>
Cereblon_4MXO_2.pdb

$$$$
