Cereblon_5YQO_1.pdb
  MOLSOFT 04032206283D

 29 31  0  0  1  0  0  0  0  0999 V2000
   79.0040   42.4903   42.6738 C   0  0  0  0  0  0  0  0  0  0  0  0
   78.1861   42.1953   41.5974 C   0  0  0  0  0  0  0  0  0  0  0  0
   77.2683   41.0774   41.4116 C   0  0  0  0  0  0  0  0  0  0  0  0
   77.0885   40.2156   42.2584 O   0  0  0  0  0  0  0  0  0  0  0  0
   76.7275   41.2205   40.1470 N   0  0  0  0  0  0  0  0  0  0  0  0
   77.2247   42.3469   39.5239 C   0  0  0  0  0  0  0  0  0  0  0  0
   76.9894   42.7654   38.3978 O   0  0  0  0  0  0  0  0  0  0  0  0
   78.1588   42.9587   40.4692 C   0  0  0  0  0  0  0  0  0  0  0  0
   78.9577   44.0752   40.3271 C   0  0  0  0  0  0  0  0  0  0  0  0
   79.8004   44.3841   41.3895 C   0  0  0  0  0  0  0  0  0  0  0  0
   79.8232   43.6058   42.5475 C   0  0  0  0  0  0  0  0  0  0  0  0
   75.7199   40.3651   39.5141 C   0  0  2  0  0  0  0  0  0  0  0  0
   74.3404   40.9340   39.8027 C   0  0  0  0  0  0  0  0  0  0  0  0
   74.1521   42.1197   40.0190 O   0  0  0  0  0  0  0  0  0  0  0  0
   73.2894   40.0532   39.7251 N   0  0  0  0  0  0  0  0  0  0  0  0
   73.3272   38.7072   39.4552 C   0  0  0  0  0  0  0  0  0  0  0  0
   72.3113   38.0340   39.3975 O   0  0  0  0  0  0  0  0  0  0  0  0
   74.6918   38.1255   39.1782 C   0  0  0  0  0  0  0  0  0  0  0  0
   75.7740   38.8945   39.9159 C   0  0  0  0  0  0  0  0  0  0  0  0
   79.0146   41.8755   43.5693 H   0  0  0  0  0  0  0  0  0  0  0  0
   78.9270   44.6762   39.4269 H   0  0  0  0  0  0  0  0  0  0  0  0
   80.4484   45.2505   41.3212 H   0  0  0  0  0  0  0  0  0  0  0  0
   80.4895   43.8743   43.3621 H   0  0  0  0  0  0  0  0  0  0  0  0
   75.8595   40.4524   38.4345 H   0  0  0  0  0  0  0  0  0  0  0  0
   72.3710   40.4473   39.8870 H   0  0  0  0  0  0  0  0  0  0  0  0
   74.6980   37.0799   39.5022 H   0  0  0  0  0  0  0  0  0  0  0  0
   74.8539   38.1477   38.0962 H   0  0  0  0  0  0  0  0  0  0  0  0
   76.7594   38.4729   39.6926 H   0  0  0  0  0  0  0  0  0  0  0  0
   75.6109   38.7752   40.9907 H   0  0  0  0  0  0  0  0  0  0  0  0
  1 20  1  0  0  0  0
  1  2  1  0  0  0  0
  1 11  2  0  0  0  0
  2  3  1  0  0  0  0
  2  8  2  0  0  0  0
  3  4  2  0  0  0  0
  3  5  1  0  0  0  0
  5  6  1  0  0  0  0
 12  5  1  0  0  0  0
  6  7  2  0  0  0  0
  6  8  1  0  0  0  0
  8  9  1  0  0  0  0
  9 21  1  0  0  0  0
  9 10  2  0  0  0  0
 10 22  1  0  0  0  0
 10 11  1  0  0  0  0
 11 23  1  0  0  0  0
 12 24  1  0  0  0  0
 12 13  1  0  0  0  0
 12 19  1  0  0  0  0
 13 14  2  0  0  0  0
 13 15  1  0  0  0  0
 15 25  1  0  0  0  0
 15 16  1  0  0  0  0
 16 17  2  0  0  0  0
 16 18  1  0  0  0  0
 18 26  1  0  0  0  0
 18 27  1  0  0  0  0
 18 19  1  0  0  0  0
 19 28  1  0  0  0  0
 19 29  1  0  0  0  0
M  ZZC   1 c1
M  ZZC   2 c2
M  ZZC   3 c3
M  ZZC   4 o1
M  ZZC   5 n1
M  ZZC   6 c4
M  ZZC   7 o2
M  ZZC   8 c5
M  ZZC   9 c6
M  ZZC  10 c7
M  ZZC  11 c8
M  ZZC  12 c9
M  ZZC  13 c10
M  ZZC  14 o3
M  ZZC  15 n2
M  ZZC  16 c11
M  ZZC  17 o4
M  ZZC  18 c12
M  ZZC  19 c13
M  ZZC  20 h11
M  ZZC  21 h61
M  ZZC  22 h71
M  ZZC  23 h81
M  ZZC  24 h91
M  ZZC  25 h21
M  ZZC  26 h121
M  ZZC  27 h122
M  ZZC  28 h131
M  ZZC  29 h132
M  ZZM   1 37
M  ZZI   1 125
M  ZZM   2 37
M  ZZI   2 124
M  ZZM   3 3
M  ZZI   3 121
M  ZZM   4 7
M  ZZI   4 81
M  ZZM   5 10
M  ZZI   5 192
M  ZZM   6 3
M  ZZI   6 121
M  ZZM   7 7
M  ZZI   7 81
M  ZZM   8 37
M  ZZI   8 124
M  ZZM   9 37
M  ZZI   9 125
M  ZZM  10 37
M  ZZI  10 125
M  ZZM  11 37
M  ZZI  11 125
M  ZZM  12 1
M  ZZI  12 113
M  ZZM  13 3
M  ZZI  13 121
M  ZZM  14 7
M  ZZI  14 81
M  ZZM  15 10
M  ZZI  15 191
M  ZZM  16 3
M  ZZI  16 121
M  ZZM  17 7
M  ZZI  17 81
M  ZZM  18 1
M  ZZI  18 112
M  ZZM  19 1
M  ZZI  19 112
M  ZZM  20 5
M  ZZI  20 1
M  ZZM  21 5
M  ZZI  21 1
M  ZZM  22 5
M  ZZI  22 1
M  ZZM  23 5
M  ZZI  23 1
M  ZZM  24 5
M  ZZI  24 1
M  ZZM  25 28
M  ZZI  25 11
M  ZZM  26 5
M  ZZI  26 1
M  ZZM  27 5
M  ZZI  27 1
M  ZZM  28 5
M  ZZI  28 1
M  ZZM  29 5
M  ZZI  29 1
M  END
> <IX>
1

> <NAME>
Cereblon_5YQO_1.pdb

> <Score>
-19.357202

> <Natom>
29

> <Nflex>
1

> <Hbond>
-3.365125

> <Hphob>
-3.548498

> <VwInt>
-22.70097

> <Dsolv>
12.031149

> <SolEl>
5.648825

> <Eintl>
1.472405

> <RecConf>
ND

> <projPath>
Cereblon_maps/

> <NAME_>
Cereblon_5YQO_1.pdb

$$$$
