Cereblon_6VS3_20.pdb
  MOLSOFT 04032206293D

 29 31  0  0  1  0  0  0  0  0999 V2000
   79.0065   42.4906   42.6726 C   0  0  0  0  0  0  0  0  0  0  0  0
   78.1853   42.1968   41.5984 C   0  0  0  0  0  0  0  0  0  0  0  0
   77.2682   41.0781   41.4125 C   0  0  0  0  0  0  0  0  0  0  0  0
   77.0887   40.2172   42.2602 O   0  0  0  0  0  0  0  0  0  0  0  0
   76.7273   41.2204   40.1477 N   0  0  0  0  0  0  0  0  0  0  0  0
   77.2225   42.3481   39.5251 C   0  0  0  0  0  0  0  0  0  0  0  0
   76.9869   42.7655   38.3986 O   0  0  0  0  0  0  0  0  0  0  0  0
   78.1575   42.9597   40.4699 C   0  0  0  0  0  0  0  0  0  0  0  0
   78.9569   44.0752   40.3265 C   0  0  0  0  0  0  0  0  0  0  0  0
   79.7995   44.3851   41.3880 C   0  0  0  0  0  0  0  0  0  0  0  0
   79.8258   43.6058   42.5451 C   0  0  0  0  0  0  0  0  0  0  0  0
   75.7206   40.3644   39.5143 C   0  0  2  0  0  0  0  0  0  0  0  0
   74.3400   40.9320   39.8020 C   0  0  0  0  0  0  0  0  0  0  0  0
   74.1511   42.1185   40.0130 O   0  0  0  0  0  0  0  0  0  0  0  0
   73.2905   40.0485   39.7310 N   0  0  0  0  0  0  0  0  0  0  0  0
   73.3295   38.7023   39.4618 C   0  0  0  0  0  0  0  0  0  0  0  0
   72.3151   38.0265   39.4093 O   0  0  0  0  0  0  0  0  0  0  0  0
   74.6944   38.1231   39.1818 C   0  0  0  0  0  0  0  0  0  0  0  0
   75.7769   38.8940   39.9160 C   0  0  0  0  0  0  0  0  0  0  0  0
   79.0195   41.8751   43.5679 H   0  0  0  0  0  0  0  0  0  0  0  0
   78.9258   44.6756   39.4249 H   0  0  0  0  0  0  0  0  0  0  0  0
   80.4501   45.2491   41.3172 H   0  0  0  0  0  0  0  0  0  0  0  0
   80.4960   43.8722   43.3575 H   0  0  0  0  0  0  0  0  0  0  0  0
   75.8604   40.4516   38.4350 H   0  0  0  0  0  0  0  0  0  0  0  0
   72.3717   40.4409   39.8947 H   0  0  0  0  0  0  0  0  0  0  0  0
   74.7022   37.0776   39.5057 H   0  0  0  0  0  0  0  0  0  0  0  0
   74.8526   38.1468   38.0992 H   0  0  0  0  0  0  0  0  0  0  0  0
   76.7619   38.4732   39.6900 H   0  0  0  0  0  0  0  0  0  0  0  0
   75.6159   38.7742   40.9910 H   0  0  0  0  0  0  0  0  0  0  0  0
  1 20  1  0  0  0  0
  1  2  1  0  0  0  0
  1 11  2  0  0  0  0
  2  3  1  0  0  0  0
  2  8  2  0  0  0  0
  3  4  2  0  0  0  0
  3  5  1  0  0  0  0
  5  6  1  0  0  0  0
 12  5  1  0  0  0  0
  6  7  2  0  0  0  0
  6  8  1  0  0  0  0
  8  9  1  0  0  0  0
  9 21  1  0  0  0  0
  9 10  2  0  0  0  0
 10 22  1  0  0  0  0
 10 11  1  0  0  0  0
 11 23  1  0  0  0  0
 12 24  1  0  0  0  0
 12 13  1  0  0  0  0
 12 19  1  0  0  0  0
 13 14  2  0  0  0  0
 13 15  1  0  0  0  0
 15 25  1  0  0  0  0
 15 16  1  0  0  0  0
 16 17  2  0  0  0  0
 16 18  1  0  0  0  0
 18 26  1  0  0  0  0
 18 27  1  0  0  0  0
 18 19  1  0  0  0  0
 19 28  1  0  0  0  0
 19 29  1  0  0  0  0
M  ZZC   1 c1
M  ZZC   2 c2
M  ZZC   3 c3
M  ZZC   4 o1
M  ZZC   5 n1
M  ZZC   6 c4
M  ZZC   7 o2
M  ZZC   8 c5
M  ZZC   9 c6
M  ZZC  10 c7
M  ZZC  11 c8
M  ZZC  12 c9
M  ZZC  13 c10
M  ZZC  14 o3
M  ZZC  15 n2
M  ZZC  16 c11
M  ZZC  17 o4
M  ZZC  18 c12
M  ZZC  19 c13
M  ZZC  20 h11
M  ZZC  21 h61
M  ZZC  22 h71
M  ZZC  23 h81
M  ZZC  24 h91
M  ZZC  25 h21
M  ZZC  26 h121
M  ZZC  27 h122
M  ZZC  28 h131
M  ZZC  29 h132
M  ZZM   1 37
M  ZZI   1 125
M  ZZM   2 37
M  ZZI   2 124
M  ZZM   3 3
M  ZZI   3 121
M  ZZM   4 7
M  ZZI   4 81
M  ZZM   5 10
M  ZZI   5 192
M  ZZM   6 3
M  ZZI   6 121
M  ZZM   7 7
M  ZZI   7 81
M  ZZM   8 37
M  ZZI   8 124
M  ZZM   9 37
M  ZZI   9 125
M  ZZM  10 37
M  ZZI  10 125
M  ZZM  11 37
M  ZZI  11 125
M  ZZM  12 1
M  ZZI  12 113
M  ZZM  13 3
M  ZZI  13 121
M  ZZM  14 7
M  ZZI  14 81
M  ZZM  15 10
M  ZZI  15 191
M  ZZM  16 3
M  ZZI  16 121
M  ZZM  17 7
M  ZZI  17 81
M  ZZM  18 1
M  ZZI  18 112
M  ZZM  19 1
M  ZZI  19 112
M  ZZM  20 5
M  ZZI  20 1
M  ZZM  21 5
M  ZZI  21 1
M  ZZM  22 5
M  ZZI  22 1
M  ZZM  23 5
M  ZZI  23 1
M  ZZM  24 5
M  ZZI  24 1
M  ZZM  25 28
M  ZZI  25 11
M  ZZM  26 5
M  ZZI  26 1
M  ZZM  27 5
M  ZZI  27 1
M  ZZM  28 5
M  ZZI  28 1
M  ZZM  29 5
M  ZZI  29 1
M  END
> <IX>
1

> <NAME>
Cereblon_6VS3_20.pdb

> <Score>
-19.457646

> <Natom>
29

> <Nflex>
1

> <Hbond>
-3.371016

> <Hphob>
-3.54636

> <VwInt>
-22.719682

> <Dsolv>
11.966128

> <SolEl>
5.58771

> <Eintl>
1.507136

> <RecConf>
ND

> <projPath>
Cereblon_maps/

> <NAME_>
Cereblon_6VS3_20.pdb

$$$$
