Cereblon_3IK3_4.pdb
  MOLSOFT 04032206213D

 31 33  0  0  1  0  0  0  0  0999 V2000
   77.6254   41.8860   41.9212 N   0  0  0  0  0  0  0  0  0  0  0  0
   77.2731   40.5799   41.5478 C   0  0  0  0  0  0  0  0  0  0  0  0
   76.3446   40.2954   40.5534 C   0  0  0  0  0  0  0  0  0  0  0  0
   75.4427   41.1740   39.8008 C   0  0  0  0  0  0  0  0  0  0  0  0
   75.2936   42.3660   40.0199 O   0  0  0  0  0  0  0  0  0  0  0  0
   74.7932   40.3806   38.8807 N   0  0  0  0  0  0  0  0  0  0  0  0
   75.0983   39.0541   39.0825 C   0  0  0  0  0  0  0  0  0  0  0  0
   74.6246   38.0606   38.5504 O   0  0  0  0  0  0  0  0  0  0  0  0
   76.1155   39.0192   40.1294 C   0  0  0  0  0  0  0  0  0  0  0  0
   76.7741   37.9271   40.6601 C   0  0  0  0  0  0  0  0  0  0  0  0
   77.6982   38.1842   41.6625 C   0  0  0  0  0  0  0  0  0  0  0  0
   77.9425   39.4875   42.0913 C   0  0  0  0  0  0  0  0  0  0  0  0
   73.7537   40.8317   37.9517 C   0  0  2  0  0  0  0  0  0  0  0  0
   74.1811   42.0704   37.1677 C   0  0  0  0  0  0  0  0  0  0  0  0
   75.3486   42.3450   36.9288 O   0  0  0  0  0  0  0  0  0  0  0  0
   73.1537   42.8369   36.6670 N   0  0  0  0  0  0  0  0  0  0  0  0
   71.7981   42.6546   36.8055 C   0  0  0  0  0  0  0  0  0  0  0  0
   70.9900   43.3990   36.2714 O   0  0  0  0  0  0  0  0  0  0  0  0
   71.3708   41.4533   37.6149 C   0  0  0  0  0  0  0  0  0  0  0  0
   72.4195   41.0646   38.6466 C   0  0  0  0  0  0  0  0  0  0  0  0
   78.1579   42.0342   42.7761 H   0  0  0  0  0  0  0  0  0  0  0  0
   77.1125   42.6782   41.5322 H   0  0  0  0  0  0  0  0  0  0  0  0
   76.5796   36.9168   40.3122 H   0  0  0  0  0  0  0  0  0  0  0  0
   78.2455   37.3620   42.1134 H   0  0  0  0  0  0  0  0  0  0  0  0
   78.6840   39.6506   42.8669 H   0  0  0  0  0  0  0  0  0  0  0  0
   73.6180   40.0348   37.2112 H   0  0  0  0  0  0  0  0  0  0  0  0
   73.4276   43.6465   36.1276 H   0  0  0  0  0  0  0  0  0  0  0  0
   70.4296   41.6932   38.1182 H   0  0  0  0  0  0  0  0  0  0  0  0
   71.1814   40.6270   36.9219 H   0  0  0  0  0  0  0  0  0  0  0  0
   72.5154   41.8449   39.4084 H   0  0  0  0  0  0  0  0  0  0  0  0
   72.0999   40.1597   39.1737 H   0  0  0  0  0  0  0  0  0  0  0  0
  1  2  1  0  0  0  0
  1 21  1  0  0  0  0
  1 22  1  0  0  0  0
  2  3  1  0  0  0  0
  2 12  2  0  0  0  0
  3  9  2  0  0  0  0
  3  4  1  0  0  0  0
  4  5  2  0  0  0  0
  4  6  1  0  0  0  0
  6  7  1  0  0  0  0
 13  6  1  0  0  0  0
  7  8  2  0  0  0  0
  7  9  1  0  0  0  0
  9 10  1  0  0  0  0
 10 23  1  0  0  0  0
 10 11  2  0  0  0  0
 11 12  1  0  0  0  0
 11 24  1  0  0  0  0
 12 25  1  0  0  0  0
 13 26  1  0  0  0  0
 13 14  1  0  0  0  0
 13 20  1  0  0  0  0
 14 15  2  0  0  0  0
 14 16  1  0  0  0  0
 16 27  1  0  0  0  0
 16 17  1  0  0  0  0
 17 18  2  0  0  0  0
 17 19  1  0  0  0  0
 19 28  1  0  0  0  0
 19 29  1  0  0  0  0
 19 20  1  0  0  0  0
 20 30  1  0  0  0  0
 20 31  1  0  0  0  0
M  ZZC   1 n1
M  ZZC   2 c1
M  ZZC   3 c2
M  ZZC   4 c3
M  ZZC   5 o1
M  ZZC   6 n2
M  ZZC   7 c4
M  ZZC   8 o2
M  ZZC   9 c5
M  ZZC  10 c6
M  ZZC  11 c7
M  ZZC  12 c8
M  ZZC  13 c9
M  ZZC  14 c10
M  ZZC  15 o3
M  ZZC  16 n3
M  ZZC  17 c11
M  ZZC  18 o4
M  ZZC  19 c12
M  ZZC  20 c13
M  ZZC  21 h11
M  ZZC  22 h12
M  ZZC  23 h61
M  ZZC  24 h71
M  ZZC  25 h81
M  ZZC  26 h91
M  ZZC  27 h31
M  ZZC  28 h121
M  ZZC  29 h122
M  ZZC  30 h131
M  ZZC  31 h132
M  ZZM   1 40
M  ZZI   1 224
M  ZZM   2 37
M  ZZI   2 124
M  ZZM   3 37
M  ZZI   3 124
M  ZZM   4 3
M  ZZI   4 121
M  ZZM   5 7
M  ZZI   5 81
M  ZZM   6 10
M  ZZI   6 192
M  ZZM   7 3
M  ZZI   7 121
M  ZZM   8 7
M  ZZI   8 81
M  ZZM   9 37
M  ZZI   9 124
M  ZZM  10 37
M  ZZI  10 125
M  ZZM  11 37
M  ZZI  11 125
M  ZZM  12 37
M  ZZI  12 125
M  ZZM  13 1
M  ZZI  13 113
M  ZZM  14 3
M  ZZI  14 121
M  ZZM  15 7
M  ZZI  15 81
M  ZZM  16 10
M  ZZI  16 191
M  ZZM  17 3
M  ZZI  17 121
M  ZZM  18 7
M  ZZI  18 81
M  ZZM  19 1
M  ZZI  19 112
M  ZZM  20 1
M  ZZI  20 112
M  ZZM  21 28
M  ZZI  21 11
M  ZZM  22 28
M  ZZI  22 11
M  ZZM  23 5
M  ZZI  23 1
M  ZZM  24 5
M  ZZI  24 1
M  ZZM  25 5
M  ZZI  25 1
M  ZZM  26 5
M  ZZI  26 1
M  ZZM  27 28
M  ZZI  27 11
M  ZZM  28 5
M  ZZI  28 1
M  ZZM  29 5
M  ZZI  29 1
M  ZZM  30 5
M  ZZI  30 1
M  ZZM  31 5
M  ZZI  31 1
M  END
> <IX>
1

> <NAME>
Cereblon_3IK3_4.pdb

> <Score>
-15.025824

> <Natom>
31

> <Nflex>
1

> <Hbond>
-4.150611

> <Hphob>
-3.537241

> <VwInt>
-23.123399

> <Dsolv>
17.326678

> <SolEl>
8.245826

> <Eintl>
3.218864

> <RecConf>
ND

> <projPath>
Cereblon_maps/

> <NAME_>
Cereblon_3IK3_4.pdb

$$$$
