Cereblon_5L2I_15.pdb
  MOLSOFT 04032206253D

 31 33  0  0  1  0  0  0  0  0999 V2000
   78.8175   41.6830   43.8087 N   0  0  0  0  0  0  0  0  0  0  0  0
   78.8992   42.4350   42.6269 C   0  0  0  0  0  0  0  0  0  0  0  0
   78.0966   42.1643   41.5319 C   0  0  0  0  0  0  0  0  0  0  0  0
   77.1757   41.0533   41.3277 C   0  0  0  0  0  0  0  0  0  0  0  0
   76.9935   40.1726   42.1551 O   0  0  0  0  0  0  0  0  0  0  0  0
   76.6411   41.2151   40.0649 N   0  0  0  0  0  0  0  0  0  0  0  0
   77.1630   42.3335   39.4478 C   0  0  0  0  0  0  0  0  0  0  0  0
   76.9520   42.7519   38.3169 O   0  0  0  0  0  0  0  0  0  0  0  0
   78.0942   42.9313   40.4065 C   0  0  0  0  0  0  0  0  0  0  0  0
   78.9070   44.0394   40.2833 C   0  0  0  0  0  0  0  0  0  0  0  0
   79.7268   44.3384   41.3650 C   0  0  0  0  0  0  0  0  0  0  0  0
   79.7132   43.5587   42.5231 C   0  0  0  0  0  0  0  0  0  0  0  0
   75.6219   40.3771   39.4295 C   0  0  2  0  0  0  0  0  0  0  0  0
   74.2507   40.9558   39.7336 C   0  0  0  0  0  0  0  0  0  0  0  0
   74.0807   42.1355   39.9925 O   0  0  0  0  0  0  0  0  0  0  0  0
   73.1897   40.0914   39.6163 N   0  0  0  0  0  0  0  0  0  0  0  0
   73.2146   38.7538   39.3035 C   0  0  0  0  0  0  0  0  0  0  0  0
   72.1897   38.1018   39.1896 O   0  0  0  0  0  0  0  0  0  0  0  0
   74.5782   38.1526   39.0581 C   0  0  0  0  0  0  0  0  0  0  0  0
   75.6553   38.9034   39.8209 C   0  0  0  0  0  0  0  0  0  0  0  0
   79.5337   41.7845   44.5247 H   0  0  0  0  0  0  0  0  0  0  0  0
   78.2835   40.8123   43.7913 H   0  0  0  0  0  0  0  0  0  0  0  0
   78.8996   44.6454   39.3851 H   0  0  0  0  0  0  0  0  0  0  0  0
   80.3796   45.2028   41.3159 H   0  0  0  0  0  0  0  0  0  0  0  0
   80.3506   43.8378   43.3566 H   0  0  0  0  0  0  0  0  0  0  0  0
   75.7560   40.4755   38.3511 H   0  0  0  0  0  0  0  0  0  0  0  0
   72.2742   40.4937   39.7745 H   0  0  0  0  0  0  0  0  0  0  0  0
   74.5607   37.1061   39.3789 H   0  0  0  0  0  0  0  0  0  0  0  0
   74.7692   38.1729   37.9806 H   0  0  0  0  0  0  0  0  0  0  0  0
   76.6402   38.4724   39.6144 H   0  0  0  0  0  0  0  0  0  0  0  0
   75.4705   38.7769   40.8915 H   0  0  0  0  0  0  0  0  0  0  0  0
  1  2  1  0  0  0  0
  1 21  1  0  0  0  0
  1 22  1  0  0  0  0
  2  3  1  0  0  0  0
  2 12  2  0  0  0  0
  3  9  2  0  0  0  0
  3  4  1  0  0  0  0
  4  5  2  0  0  0  0
  4  6  1  0  0  0  0
  6  7  1  0  0  0  0
 13  6  1  0  0  0  0
  7  8  2  0  0  0  0
  7  9  1  0  0  0  0
  9 10  1  0  0  0  0
 10 23  1  0  0  0  0
 10 11  2  0  0  0  0
 11 12  1  0  0  0  0
 11 24  1  0  0  0  0
 12 25  1  0  0  0  0
 13 26  1  0  0  0  0
 13 14  1  0  0  0  0
 13 20  1  0  0  0  0
 14 15  2  0  0  0  0
 14 16  1  0  0  0  0
 16 27  1  0  0  0  0
 16 17  1  0  0  0  0
 17 18  2  0  0  0  0
 17 19  1  0  0  0  0
 19 28  1  0  0  0  0
 19 29  1  0  0  0  0
 19 20  1  0  0  0  0
 20 30  1  0  0  0  0
 20 31  1  0  0  0  0
M  ZZC   1 n1
M  ZZC   2 c1
M  ZZC   3 c2
M  ZZC   4 c3
M  ZZC   5 o1
M  ZZC   6 n2
M  ZZC   7 c4
M  ZZC   8 o2
M  ZZC   9 c5
M  ZZC  10 c6
M  ZZC  11 c7
M  ZZC  12 c8
M  ZZC  13 c9
M  ZZC  14 c10
M  ZZC  15 o3
M  ZZC  16 n3
M  ZZC  17 c11
M  ZZC  18 o4
M  ZZC  19 c12
M  ZZC  20 c13
M  ZZC  21 h11
M  ZZC  22 h12
M  ZZC  23 h61
M  ZZC  24 h71
M  ZZC  25 h81
M  ZZC  26 h91
M  ZZC  27 h31
M  ZZC  28 h121
M  ZZC  29 h122
M  ZZC  30 h131
M  ZZC  31 h132
M  ZZM   1 40
M  ZZI   1 224
M  ZZM   2 37
M  ZZI   2 124
M  ZZM   3 37
M  ZZI   3 124
M  ZZM   4 3
M  ZZI   4 121
M  ZZM   5 7
M  ZZI   5 81
M  ZZM   6 10
M  ZZI   6 192
M  ZZM   7 3
M  ZZI   7 121
M  ZZM   8 7
M  ZZI   8 81
M  ZZM   9 37
M  ZZI   9 124
M  ZZM  10 37
M  ZZI  10 125
M  ZZM  11 37
M  ZZI  11 125
M  ZZM  12 37
M  ZZI  12 125
M  ZZM  13 1
M  ZZI  13 113
M  ZZM  14 3
M  ZZI  14 121
M  ZZM  15 7
M  ZZI  15 81
M  ZZM  16 10
M  ZZI  16 191
M  ZZM  17 3
M  ZZI  17 121
M  ZZM  18 7
M  ZZI  18 81
M  ZZM  19 1
M  ZZI  19 112
M  ZZM  20 1
M  ZZI  20 112
M  ZZM  21 28
M  ZZI  21 11
M  ZZM  22 28
M  ZZI  22 11
M  ZZM  23 5
M  ZZI  23 1
M  ZZM  24 5
M  ZZI  24 1
M  ZZM  25 5
M  ZZI  25 1
M  ZZM  26 5
M  ZZI  26 1
M  ZZM  27 28
M  ZZI  27 11
M  ZZM  28 5
M  ZZI  28 1
M  ZZM  29 5
M  ZZI  29 1
M  ZZM  30 5
M  ZZI  30 1
M  ZZM  31 5
M  ZZI  31 1
M  END
> <IX>
1

> <NAME>
Cereblon_5L2I_15.pdb

> <Score>
-18.328613

> <Natom>
31

> <Nflex>
1

> <Hbond>
-3.69136

> <Hphob>
-3.543428

> <VwInt>
-24.25883

> <Dsolv>
15.255788

> <SolEl>
6.941388

> <Eintl>
1.700493

> <RecConf>
ND

> <projPath>
Cereblon_maps/

> <NAME_>
Cereblon_5L2I_15.pdb

$$$$
