Cereblon_1HWK_38.pdb
  MOLSOFT 04032206193D

 30 32  0  0  1  0  0  0  0  0999 V2000
   75.7148   37.9204   39.7469 C   0  0  0  0  0  0  0  0  0  0  0  0
   75.0062   39.0133   39.2756 C   0  0  0  0  0  0  0  0  0  0  0  0
   75.3083   40.2675   39.7249 C   0  0  0  0  0  0  0  0  0  0  0  0
   74.4099   41.2190   39.0696 C   0  0  0  0  0  0  0  0  0  0  0  0
   74.4110   42.4155   39.3169 O   0  0  0  0  0  0  0  0  0  0  0  0
   73.6313   40.4901   38.1832 N   0  0  0  0  0  0  0  0  0  0  0  0
   72.6012   41.0072   37.2670 C   0  0  1  0  0  0  0  0  0  0  0  0
   71.2860   41.2516   38.0047 C   0  0  0  0  0  0  0  0  0  0  0  0
   70.9237   40.5875   38.9652 O   0  0  0  0  0  0  0  0  0  0  0  0
   70.4577   42.2087   37.4641 N   0  0  0  0  0  0  0  0  0  0  0  0
   70.6648   43.0147   36.3762 C   0  0  0  0  0  0  0  0  0  0  0  0
   69.8674   43.8874   36.0677 O   0  0  0  0  0  0  0  0  0  0  0  0
   71.9169   42.7280   35.5868 C   0  0  0  0  0  0  0  0  0  0  0  0
   73.0364   42.2548   36.4992 C   0  0  0  0  0  0  0  0  0  0  0  0
   73.8950   39.0651   38.2887 C   0  0  0  0  0  0  0  0  0  0  0  0
   76.3154   40.5227   40.6378 C   0  0  0  0  0  0  0  0  0  0  0  0
   77.0274   39.4321   41.1138 C   0  0  0  0  0  0  0  0  0  0  0  0
   76.7283   38.1463   40.6713 C   0  0  0  0  0  0  0  0  0  0  0  0
   75.4949   36.9145   39.4031 H   0  0  0  0  0  0  0  0  0  0  0  0
   72.3988   40.2156   36.5360 H   0  0  0  0  0  0  0  0  0  0  0  0
   69.5911   42.3732   37.9549 H   0  0  0  0  0  0  0  0  0  0  0  0
   71.6826   41.9780   34.8237 H   0  0  0  0  0  0  0  0  0  0  0  0
   72.2189   43.6460   35.0783 H   0  0  0  0  0  0  0  0  0  0  0  0
   73.9338   42.0422   35.9095 H   0  0  0  0  0  0  0  0  0  0  0  0
   73.3008   43.0663   37.1832 H   0  0  0  0  0  0  0  0  0  0  0  0
   74.1919   38.6689   37.3120 H   0  0  0  0  0  0  0  0  0  0  0  0
   73.0009   38.5552   38.6635 H   0  0  0  0  0  0  0  0  0  0  0  0
   76.5494   41.5315   40.9620 H   0  0  0  0  0  0  0  0  0  0  0  0
   77.8259   39.5843   41.8336 H   0  0  0  0  0  0  0  0  0  0  0  0
   77.2993   37.3058   41.0529 H   0  0  0  0  0  0  0  0  0  0  0  0
  1 19  1  0  0  0  0
  1 18  2  0  0  0  0
  1  2  1  0  0  0  0
  2  3  2  0  0  0  0
  2 15  1  0  0  0  0
  3 16  1  0  0  0  0
  3  4  1  0  0  0  0
  4  6  1  0  0  0  0
  4  5  2  0  0  0  0
  6 15  1  0  0  0  0
  7  6  1  0  0  0  0
  7 20  1  0  0  0  0
  7  8  1  0  0  0  0
  7 14  1  0  0  0  0
  8  9  2  0  0  0  0
  8 10  1  0  0  0  0
 10 21  1  0  0  0  0
 10 11  1  0  0  0  0
 11 12  2  0  0  0  0
 11 13  1  0  0  0  0
 13 22  1  0  0  0  0
 13 23  1  0  0  0  0
 13 14  1  0  0  0  0
 14 24  1  0  0  0  0
 14 25  1  0  0  0  0
 15 26  1  0  0  0  0
 15 27  1  0  0  0  0
 16 17  2  0  0  0  0
 16 28  1  0  0  0  0
 17 18  1  0  0  0  0
 17 29  1  0  0  0  0
 18 30  1  0  0  0  0
M  ZZC   1 c1
M  ZZC   2 c2
M  ZZC   3 c3
M  ZZC   4 c4
M  ZZC   5 o1
M  ZZC   6 n1
M  ZZC   7 c5
M  ZZC   8 c6
M  ZZC   9 o2
M  ZZC  10 n2
M  ZZC  11 c7
M  ZZC  12 o3
M  ZZC  13 c8
M  ZZC  14 c9
M  ZZC  15 c10
M  ZZC  16 c11
M  ZZC  17 c12
M  ZZC  18 c13
M  ZZC  19 h11
M  ZZC  20 h51
M  ZZC  21 h21
M  ZZC  22 h81
M  ZZC  23 h82
M  ZZC  24 h91
M  ZZC  25 h92
M  ZZC  26 h101
M  ZZC  27 h102
M  ZZC  28 h111
M  ZZC  29 h121
M  ZZC  30 h131
M  ZZM   1 37
M  ZZI   1 125
M  ZZM   2 37
M  ZZI   2 124
M  ZZM   3 37
M  ZZI   3 124
M  ZZM   4 3
M  ZZI   4 121
M  ZZM   5 7
M  ZZI   5 81
M  ZZM   6 10
M  ZZI   6 192
M  ZZM   7 1
M  ZZI   7 113
M  ZZM   8 3
M  ZZI   8 121
M  ZZM   9 7
M  ZZI   9 81
M  ZZM  10 10
M  ZZI  10 191
M  ZZM  11 3
M  ZZI  11 121
M  ZZM  12 7
M  ZZI  12 81
M  ZZM  13 1
M  ZZI  13 112
M  ZZM  14 1
M  ZZI  14 112
M  ZZM  15 1
M  ZZI  15 112
M  ZZM  16 37
M  ZZI  16 125
M  ZZM  17 37
M  ZZI  17 125
M  ZZM  18 37
M  ZZI  18 125
M  ZZM  19 5
M  ZZI  19 1
M  ZZM  20 5
M  ZZI  20 1
M  ZZM  21 28
M  ZZI  21 11
M  ZZM  22 5
M  ZZI  22 1
M  ZZM  23 5
M  ZZI  23 1
M  ZZM  24 5
M  ZZI  24 1
M  ZZM  25 5
M  ZZI  25 1
M  ZZM  26 5
M  ZZI  26 1
M  ZZM  27 5
M  ZZI  27 1
M  ZZM  28 5
M  ZZI  28 1
M  ZZM  29 5
M  ZZI  29 1
M  ZZM  30 5
M  ZZI  30 1
M  END
> <IX>
1

> <NAME>
Cereblon_1HWK_38.pdb

> <Score>
-20.665863

> <Natom>
30

> <Nflex>
1

> <Hbond>
-4.590838

> <Hphob>
-3.586065

> <VwInt>
-22.00123

> <Dsolv>
13.315938

> <SolEl>
5.716747

> <Eintl>
1.654741

> <RecConf>
ND

> <projPath>
Cereblon_maps/

> <NAME_>
Cereblon_1HWK_38.pdb

$$$$
