Cereblon_6NUQ_15.pdb
  MOLSOFT 04032206293D

 32 34  0  0  1  0  0  0  0  0999 V2000
   76.6590   42.8713   39.9173 N   0  0  0  0  0  0  0  0  0  0  0  0
   76.2390   41.5321   39.9461 C   0  0  0  0  0  0  0  0  0  0  0  0
   75.2378   41.0623   39.1114 C   0  0  0  0  0  0  0  0  0  0  0  0
   74.8974   39.7373   39.1009 C   0  0  0  0  0  0  0  0  0  0  0  0
   73.7862   39.5510   38.1586 C   0  0  0  0  0  0  0  0  0  0  0  0
   73.2478   38.4769   37.9326 O   0  0  0  0  0  0  0  0  0  0  0  0
   73.4922   40.8007   37.6457 N   0  0  0  0  0  0  0  0  0  0  0  0
   72.3148   41.1077   36.8187 C   0  0  1  0  0  0  0  0  0  0  0  0
   71.1141   41.3594   37.7361 C   0  0  0  0  0  0  0  0  0  0  0  0
   70.9231   40.7512   38.7790 O   0  0  0  0  0  0  0  0  0  0  0  0
   70.1934   42.2816   37.3010 N   0  0  0  0  0  0  0  0  0  0  0  0
   70.1917   43.0195   36.1508 C   0  0  0  0  0  0  0  0  0  0  0  0
   69.3611   43.8912   35.9519 O   0  0  0  0  0  0  0  0  0  0  0  0
   71.2564   42.6532   35.1511 C   0  0  0  0  0  0  0  0  0  0  0  0
   72.5390   42.2942   35.8790 C   0  0  0  0  0  0  0  0  0  0  0  0
   74.3722   41.8222   38.1777 C   0  0  0  0  0  0  0  0  0  0  0  0
   75.5202   38.7948   39.8967 C   0  0  0  0  0  0  0  0  0  0  0  0
   76.5302   39.2489   40.7315 C   0  0  0  0  0  0  0  0  0  0  0  0
   76.8815   40.5969   40.7508 C   0  0  0  0  0  0  0  0  0  0  0  0
   77.2006   43.2382   40.7001 H   0  0  0  0  0  0  0  0  0  0  0  0
   76.1877   43.5409   39.3171 H   0  0  0  0  0  0  0  0  0  0  0  0
   72.0704   40.2111   36.2377 H   0  0  0  0  0  0  0  0  0  0  0  0
   69.4239   42.4648   37.9281 H   0  0  0  0  0  0  0  0  0  0  0  0
   70.8969   41.8183   34.5405 H   0  0  0  0  0  0  0  0  0  0  0  0
   71.4258   43.5104   34.4937 H   0  0  0  0  0  0  0  0  0  0  0  0
   73.3270   42.0549   35.1589 H   0  0  0  0  0  0  0  0  0  0  0  0
   72.8792   43.1740   36.4372 H   0  0  0  0  0  0  0  0  0  0  0  0
   73.7726   42.5609   38.7107 H   0  0  0  0  0  0  0  0  0  0  0  0
   74.9483   42.2779   37.3646 H   0  0  0  0  0  0  0  0  0  0  0  0
   75.2291   37.7492   39.8745 H   0  0  0  0  0  0  0  0  0  0  0  0
   77.0552   38.5486   41.3736 H   0  0  0  0  0  0  0  0  0  0  0  0
   77.6865   40.9202   41.4027 H   0  0  0  0  0  0  0  0  0  0  0  0
  1  2  1  0  0  0  0
  1 20  1  0  0  0  0
  1 21  1  0  0  0  0
  2  3  1  0  0  0  0
  2 19  2  0  0  0  0
  3 16  1  0  0  0  0
  3  4  2  0  0  0  0
  4 17  1  0  0  0  0
  4  5  1  0  0  0  0
  5  6  2  0  0  0  0
  5  7  1  0  0  0  0
  8  7  1  0  0  0  0
  7 16  1  0  0  0  0
  8  9  1  0  0  0  0
  8 22  1  0  0  0  0
  8 15  1  0  0  0  0
  9 11  1  0  0  0  0
  9 10  2  0  0  0  0
 11 12  1  0  0  0  0
 11 23  1  0  0  0  0
 12 14  1  0  0  0  0
 12 13  2  0  0  0  0
 14 24  1  0  0  0  0
 14 25  1  0  0  0  0
 14 15  1  0  0  0  0
 15 26  1  0  0  0  0
 15 27  1  0  0  0  0
 16 28  1  0  0  0  0
 16 29  1  0  0  0  0
 17 18  2  0  0  0  0
 17 30  1  0  0  0  0
 18 19  1  0  0  0  0
 18 31  1  0  0  0  0
 19 32  1  0  0  0  0
M  ZZC   1 n1
M  ZZC   2 c1
M  ZZC   3 c2
M  ZZC   4 c3
M  ZZC   5 c4
M  ZZC   6 o1
M  ZZC   7 n2
M  ZZC   8 c5
M  ZZC   9 c6
M  ZZC  10 o2
M  ZZC  11 n3
M  ZZC  12 c7
M  ZZC  13 o3
M  ZZC  14 c8
M  ZZC  15 c9
M  ZZC  16 c10
M  ZZC  17 c11
M  ZZC  18 c12
M  ZZC  19 c13
M  ZZC  20 h11
M  ZZC  21 h12
M  ZZC  22 h51
M  ZZC  23 h31
M  ZZC  24 h81
M  ZZC  25 h82
M  ZZC  26 h91
M  ZZC  27 h92
M  ZZC  28 h101
M  ZZC  29 h102
M  ZZC  30 h111
M  ZZC  31 h121
M  ZZC  32 h131
M  ZZM   1 40
M  ZZI   1 224
M  ZZM   2 37
M  ZZI   2 124
M  ZZM   3 37
M  ZZI   3 124
M  ZZM   4 37
M  ZZI   4 124
M  ZZM   5 3
M  ZZI   5 121
M  ZZM   6 7
M  ZZI   6 81
M  ZZM   7 10
M  ZZI   7 192
M  ZZM   8 1
M  ZZI   8 113
M  ZZM   9 3
M  ZZI   9 121
M  ZZM  10 7
M  ZZI  10 81
M  ZZM  11 10
M  ZZI  11 191
M  ZZM  12 3
M  ZZI  12 121
M  ZZM  13 7
M  ZZI  13 81
M  ZZM  14 1
M  ZZI  14 112
M  ZZM  15 1
M  ZZI  15 112
M  ZZM  16 1
M  ZZI  16 112
M  ZZM  17 37
M  ZZI  17 125
M  ZZM  18 37
M  ZZI  18 125
M  ZZM  19 37
M  ZZI  19 125
M  ZZM  20 28
M  ZZI  20 11
M  ZZM  21 28
M  ZZI  21 11
M  ZZM  22 5
M  ZZI  22 1
M  ZZM  23 28
M  ZZI  23 11
M  ZZM  24 5
M  ZZI  24 1
M  ZZM  25 5
M  ZZI  25 1
M  ZZM  26 5
M  ZZI  26 1
M  ZZM  27 5
M  ZZI  27 1
M  ZZM  28 5
M  ZZI  28 1
M  ZZM  29 5
M  ZZI  29 1
M  ZZM  30 5
M  ZZI  30 1
M  ZZM  31 5
M  ZZI  31 1
M  ZZM  32 5
M  ZZI  32 1
M  END
> <IX>
1

> <NAME>
Cereblon_6NUQ_15.pdb

> <Score>
-18.690795

> <Natom>
32

> <Nflex>
1

> <Hbond>
-4.136198

> <Hphob>
-3.993335

> <VwInt>
-25.237806

> <Dsolv>
14.556062

> <SolEl>
10.51881

> <Eintl>
2.046107

> <RecConf>
ND

> <projPath>
Cereblon_maps/

> <NAME_>
Cereblon_6NUQ_15.pdb

$$$$
