Cereblon_4CI3_33.pdb
  MOLSOFT 04032206233D

 31 33  0  0  1  0  0  0  0  0999 V2000
   77.6138   41.8660   41.9411 N   0  0  0  0  0  0  0  0  0  0  0  0
   77.2756   40.5627   41.5455 C   0  0  0  0  0  0  0  0  0  0  0  0
   76.3428   40.2822   40.5536 C   0  0  0  0  0  0  0  0  0  0  0  0
   75.4337   41.1634   39.8123 C   0  0  0  0  0  0  0  0  0  0  0  0
   75.2888   42.3558   40.0344 O   0  0  0  0  0  0  0  0  0  0  0  0
   74.7720   40.3708   38.9002 N   0  0  0  0  0  0  0  0  0  0  0  0
   75.0936   39.0459   39.0811 C   0  0  0  0  0  0  0  0  0  0  0  0
   74.6375   38.0546   38.5287 O   0  0  0  0  0  0  0  0  0  0  0  0
   76.1159   39.0073   40.1224 C   0  0  0  0  0  0  0  0  0  0  0  0
   76.7847   37.9143   40.6387 C   0  0  0  0  0  0  0  0  0  0  0  0
   77.7089   38.1678   41.6415 C   0  0  0  0  0  0  0  0  0  0  0  0
   77.9504   39.4686   42.0776 C   0  0  0  0  0  0  0  0  0  0  0  0
   73.7448   40.8293   37.9611 C   0  0  2  0  0  0  0  0  0  0  0  0
   74.1834   42.0647   37.1771 C   0  0  0  0  0  0  0  0  0  0  0  0
   75.3535   42.3314   36.9423 O   0  0  0  0  0  0  0  0  0  0  0  0
   73.1641   42.8404   36.6729 N   0  0  0  0  0  0  0  0  0  0  0  0
   71.8065   42.6636   36.7980 C   0  0  0  0  0  0  0  0  0  0  0  0
   71.0059   43.4105   36.2557 O   0  0  0  0  0  0  0  0  0  0  0  0
   71.3680   41.4646   37.6041 C   0  0  0  0  0  0  0  0  0  0  0  0
   72.4066   41.0742   38.6446 C   0  0  0  0  0  0  0  0  0  0  0  0
   78.0888   42.0035   42.8309 H   0  0  0  0  0  0  0  0  0  0  0  0
   77.1107   42.6589   41.5411 H   0  0  0  0  0  0  0  0  0  0  0  0
   76.5931   36.9067   40.2814 H   0  0  0  0  0  0  0  0  0  0  0  0
   78.2549   37.3428   42.0888 H   0  0  0  0  0  0  0  0  0  0  0  0
   78.6846   39.6297   42.8604 H   0  0  0  0  0  0  0  0  0  0  0  0
   73.6049   40.0305   37.2235 H   0  0  0  0  0  0  0  0  0  0  0  0
   73.4465   43.6451   36.1307 H   0  0  0  0  0  0  0  0  0  0  0  0
   70.4234   41.7081   38.0989 H   0  0  0  0  0  0  0  0  0  0  0  0
   71.1819   40.6383   36.9101 H   0  0  0  0  0  0  0  0  0  0  0  0
   72.5058   41.8541   39.4064 H   0  0  0  0  0  0  0  0  0  0  0  0
   72.0738   40.1737   39.1712 H   0  0  0  0  0  0  0  0  0  0  0  0
  1  2  1  0  0  0  0
  1 21  1  0  0  0  0
  1 22  1  0  0  0  0
  2  3  1  0  0  0  0
  2 12  2  0  0  0  0
  3  9  2  0  0  0  0
  3  4  1  0  0  0  0
  4  5  2  0  0  0  0
  4  6  1  0  0  0  0
  6  7  1  0  0  0  0
 13  6  1  0  0  0  0
  7  8  2  0  0  0  0
  7  9  1  0  0  0  0
  9 10  1  0  0  0  0
 10 23  1  0  0  0  0
 10 11  2  0  0  0  0
 11 12  1  0  0  0  0
 11 24  1  0  0  0  0
 12 25  1  0  0  0  0
 13 26  1  0  0  0  0
 13 14  1  0  0  0  0
 13 20  1  0  0  0  0
 14 15  2  0  0  0  0
 14 16  1  0  0  0  0
 16 27  1  0  0  0  0
 16 17  1  0  0  0  0
 17 18  2  0  0  0  0
 17 19  1  0  0  0  0
 19 28  1  0  0  0  0
 19 29  1  0  0  0  0
 19 20  1  0  0  0  0
 20 30  1  0  0  0  0
 20 31  1  0  0  0  0
M  ZZC   1 n1
M  ZZC   2 c1
M  ZZC   3 c2
M  ZZC   4 c3
M  ZZC   5 o1
M  ZZC   6 n2
M  ZZC   7 c4
M  ZZC   8 o2
M  ZZC   9 c5
M  ZZC  10 c6
M  ZZC  11 c7
M  ZZC  12 c8
M  ZZC  13 c9
M  ZZC  14 c10
M  ZZC  15 o3
M  ZZC  16 n3
M  ZZC  17 c11
M  ZZC  18 o4
M  ZZC  19 c12
M  ZZC  20 c13
M  ZZC  21 h11
M  ZZC  22 h12
M  ZZC  23 h61
M  ZZC  24 h71
M  ZZC  25 h81
M  ZZC  26 h91
M  ZZC  27 h31
M  ZZC  28 h121
M  ZZC  29 h122
M  ZZC  30 h131
M  ZZC  31 h132
M  ZZM   1 40
M  ZZI   1 224
M  ZZM   2 37
M  ZZI   2 124
M  ZZM   3 37
M  ZZI   3 124
M  ZZM   4 3
M  ZZI   4 121
M  ZZM   5 7
M  ZZI   5 81
M  ZZM   6 10
M  ZZI   6 192
M  ZZM   7 3
M  ZZI   7 121
M  ZZM   8 7
M  ZZI   8 81
M  ZZM   9 37
M  ZZI   9 124
M  ZZM  10 37
M  ZZI  10 125
M  ZZM  11 37
M  ZZI  11 125
M  ZZM  12 37
M  ZZI  12 125
M  ZZM  13 1
M  ZZI  13 113
M  ZZM  14 3
M  ZZI  14 121
M  ZZM  15 7
M  ZZI  15 81
M  ZZM  16 10
M  ZZI  16 191
M  ZZM  17 3
M  ZZI  17 121
M  ZZM  18 7
M  ZZI  18 81
M  ZZM  19 1
M  ZZI  19 112
M  ZZM  20 1
M  ZZI  20 112
M  ZZM  21 28
M  ZZI  21 11
M  ZZM  22 28
M  ZZI  22 11
M  ZZM  23 5
M  ZZI  23 1
M  ZZM  24 5
M  ZZI  24 1
M  ZZM  25 5
M  ZZI  25 1
M  ZZM  26 5
M  ZZI  26 1
M  ZZM  27 28
M  ZZI  27 11
M  ZZM  28 5
M  ZZI  28 1
M  ZZM  29 5
M  ZZI  29 1
M  ZZM  30 5
M  ZZI  30 1
M  ZZM  31 5
M  ZZI  31 1
M  END
> <IX>
1

> <NAME>
Cereblon_4CI3_33.pdb

> <Score>
-14.61769

> <Natom>
31

> <Nflex>
1

> <Hbond>
-4.168315

> <Hphob>
-3.51287

> <VwInt>
-22.904908

> <Dsolv>
17.363754

> <SolEl>
8.421685

> <Eintl>
3.342582

> <RecConf>
ND

> <projPath>
Cereblon_maps/

> <NAME_>
Cereblon_4CI3_33.pdb

$$$$
