Cereblon_1HWK_4.pdb
  MOLSOFT 04032206193D

 31 33  0  0  1  0  0  0  0  0999 V2000
   77.4082   41.9245   41.6205 N   0  0  0  0  0  0  0  0  0  0  0  0
   77.1058   40.6196   41.2022 C   0  0  0  0  0  0  0  0  0  0  0  0
   76.1086   40.3280   40.2776 C   0  0  0  0  0  0  0  0  0  0  0  0
   75.1941   41.2078   39.5412 C   0  0  0  0  0  0  0  0  0  0  0  0
   75.1236   42.4135   39.7231 O   0  0  0  0  0  0  0  0  0  0  0  0
   74.4503   40.4007   38.7021 N   0  0  0  0  0  0  0  0  0  0  0  0
   74.7600   39.0738   38.9099 C   0  0  0  0  0  0  0  0  0  0  0  0
   74.2778   38.0741   38.3977 O   0  0  0  0  0  0  0  0  0  0  0  0
   75.8274   39.0465   39.9068 C   0  0  0  0  0  0  0  0  0  0  0  0
   76.4867   37.9551   40.4400 C   0  0  0  0  0  0  0  0  0  0  0  0
   77.4531   38.2180   41.4006 C   0  0  0  0  0  0  0  0  0  0  0  0
   77.7438   39.5266   41.7816 C   0  0  0  0  0  0  0  0  0  0  0  0
   73.3910   40.8307   37.7769 C   0  0  1  0  0  0  0  0  0  0  0  0
   72.0802   41.0380   38.5255 C   0  0  0  0  0  0  0  0  0  0  0  0
   71.8162   40.4883   39.5849 O   0  0  0  0  0  0  0  0  0  0  0  0
   71.1565   41.8402   37.8944 N   0  0  0  0  0  0  0  0  0  0  0  0
   71.2982   42.5817   36.7453 C   0  0  0  0  0  0  0  0  0  0  0  0
   70.4224   43.3346   36.3456 O   0  0  0  0  0  0  0  0  0  0  0  0
   72.6002   42.3961   36.0041 C   0  0  0  0  0  0  0  0  0  0  0  0
   73.7328   42.0798   36.9671 C   0  0  0  0  0  0  0  0  0  0  0  0
   78.2223   42.0862   42.2095 H   0  0  0  0  0  0  0  0  0  0  0  0
   77.0297   42.7184   41.1026 H   0  0  0  0  0  0  0  0  0  0  0  0
   76.2508   36.9397   40.1361 H   0  0  0  0  0  0  0  0  0  0  0  0
   77.9860   37.3944   41.8659 H   0  0  0  0  0  0  0  0  0  0  0  0
   78.4926   39.6933   42.5496 H   0  0  0  0  0  0  0  0  0  0  0  0
   73.2099   40.0017   37.0828 H   0  0  0  0  0  0  0  0  0  0  0  0
   70.2863   41.9714   38.3882 H   0  0  0  0  0  0  0  0  0  0  0  0
   72.4703   41.5941   35.2698 H   0  0  0  0  0  0  0  0  0  0  0  0
   72.8222   43.3202   35.4627 H   0  0  0  0  0  0  0  0  0  0  0  0
   74.6629   41.9335   36.4120 H   0  0  0  0  0  0  0  0  0  0  0  0
   73.8926   42.9404   37.6215 H   0  0  0  0  0  0  0  0  0  0  0  0
  1  2  1  0  0  0  0
  1 21  1  0  0  0  0
  1 22  1  0  0  0  0
  2  3  1  0  0  0  0
  2 12  2  0  0  0  0
  3  9  2  0  0  0  0
  3  4  1  0  0  0  0
  4  5  2  0  0  0  0
  4  6  1  0  0  0  0
  6  7  1  0  0  0  0
 13  6  1  0  0  0  0
  7  8  2  0  0  0  0
  7  9  1  0  0  0  0
  9 10  1  0  0  0  0
 10 23  1  0  0  0  0
 10 11  2  0  0  0  0
 11 12  1  0  0  0  0
 11 24  1  0  0  0  0
 12 25  1  0  0  0  0
 13 26  1  0  0  0  0
 13 14  1  0  0  0  0
 13 20  1  0  0  0  0
 14 15  2  0  0  0  0
 14 16  1  0  0  0  0
 16 27  1  0  0  0  0
 16 17  1  0  0  0  0
 17 18  2  0  0  0  0
 17 19  1  0  0  0  0
 19 28  1  0  0  0  0
 19 29  1  0  0  0  0
 19 20  1  0  0  0  0
 20 30  1  0  0  0  0
 20 31  1  0  0  0  0
M  ZZC   1 n1
M  ZZC   2 c1
M  ZZC   3 c2
M  ZZC   4 c3
M  ZZC   5 o1
M  ZZC   6 n2
M  ZZC   7 c4
M  ZZC   8 o2
M  ZZC   9 c5
M  ZZC  10 c6
M  ZZC  11 c7
M  ZZC  12 c8
M  ZZC  13 c9
M  ZZC  14 c10
M  ZZC  15 o3
M  ZZC  16 n3
M  ZZC  17 c11
M  ZZC  18 o4
M  ZZC  19 c12
M  ZZC  20 c13
M  ZZC  21 h11
M  ZZC  22 h12
M  ZZC  23 h61
M  ZZC  24 h71
M  ZZC  25 h81
M  ZZC  26 h91
M  ZZC  27 h31
M  ZZC  28 h121
M  ZZC  29 h122
M  ZZC  30 h131
M  ZZC  31 h132
M  ZZM   1 40
M  ZZI   1 224
M  ZZM   2 37
M  ZZI   2 124
M  ZZM   3 37
M  ZZI   3 124
M  ZZM   4 3
M  ZZI   4 121
M  ZZM   5 7
M  ZZI   5 81
M  ZZM   6 10
M  ZZI   6 192
M  ZZM   7 3
M  ZZI   7 121
M  ZZM   8 7
M  ZZI   8 81
M  ZZM   9 37
M  ZZI   9 124
M  ZZM  10 37
M  ZZI  10 125
M  ZZM  11 37
M  ZZI  11 125
M  ZZM  12 37
M  ZZI  12 125
M  ZZM  13 1
M  ZZI  13 113
M  ZZM  14 3
M  ZZI  14 121
M  ZZM  15 7
M  ZZI  15 81
M  ZZM  16 10
M  ZZI  16 191
M  ZZM  17 3
M  ZZI  17 121
M  ZZM  18 7
M  ZZI  18 81
M  ZZM  19 1
M  ZZI  19 112
M  ZZM  20 1
M  ZZI  20 112
M  ZZM  21 28
M  ZZI  21 11
M  ZZM  22 28
M  ZZI  22 11
M  ZZM  23 5
M  ZZI  23 1
M  ZZM  24 5
M  ZZI  24 1
M  ZZM  25 5
M  ZZI  25 1
M  ZZM  26 5
M  ZZI  26 1
M  ZZM  27 28
M  ZZI  27 11
M  ZZM  28 5
M  ZZI  28 1
M  ZZM  29 5
M  ZZI  29 1
M  ZZM  30 5
M  ZZI  30 1
M  ZZM  31 5
M  ZZI  31 1
M  END
> <IX>
1

> <NAME>
Cereblon_1HWK_4.pdb

> <Score>
-15.36715

> <Natom>
31

> <Nflex>
1

> <Hbond>
-3.43022

> <Hphob>
-3.629173

> <VwInt>
-23.924731

> <Dsolv>
16.440444

> <SolEl>
9.506556

> <Eintl>
0.771542

> <RecConf>
ND

> <projPath>
Cereblon_maps/

> <NAME_>
Cereblon_1HWK_4.pdb

$$$$
