Cereblon_3LQ5_7.pdb
  MOLSOFT 04032206213D

 29 31  0  0  1  0  0  0  0  0999 V2000
   78.9966   42.4843   42.6752 C   0  0  0  0  0  0  0  0  0  0  0  0
   78.1831   42.1900   41.5954 C   0  0  0  0  0  0  0  0  0  0  0  0
   77.2658   41.0724   41.4068 C   0  0  0  0  0  0  0  0  0  0  0  0
   77.0838   40.2105   42.2531 O   0  0  0  0  0  0  0  0  0  0  0  0
   76.7272   41.2176   40.1416 N   0  0  0  0  0  0  0  0  0  0  0  0
   77.2237   42.3459   39.5213 C   0  0  0  0  0  0  0  0  0  0  0  0
   76.9882   42.7669   38.3963 O   0  0  0  0  0  0  0  0  0  0  0  0
   78.1579   42.9550   40.4685 C   0  0  0  0  0  0  0  0  0  0  0  0
   78.9555   44.0729   40.3312 C   0  0  0  0  0  0  0  0  0  0  0  0
   79.7946   44.3806   41.3964 C   0  0  0  0  0  0  0  0  0  0  0  0
   79.8150   43.6008   42.5534 C   0  0  0  0  0  0  0  0  0  0  0  0
   75.7161   40.3664   39.5082 C   0  0  2  0  0  0  0  0  0  0  0  0
   74.3373   40.9367   39.8007 C   0  0  0  0  0  0  0  0  0  0  0  0
   74.1532   42.1231   40.0173 O   0  0  0  0  0  0  0  0  0  0  0  0
   73.2856   40.0566   39.7247 N   0  0  0  0  0  0  0  0  0  0  0  0
   73.3208   38.7120   39.4474 C   0  0  0  0  0  0  0  0  0  0  0  0
   72.3029   38.0418   39.3867 O   0  0  0  0  0  0  0  0  0  0  0  0
   74.6843   38.1290   39.1684 C   0  0  0  0  0  0  0  0  0  0  0  0
   75.7679   38.8950   39.9070 C   0  0  0  0  0  0  0  0  0  0  0  0
   79.0043   41.8666   43.5690 H   0  0  0  0  0  0  0  0  0  0  0  0
   78.9260   44.6765   39.4319 H   0  0  0  0  0  0  0  0  0  0  0  0
   80.4410   45.2482   41.3317 H   0  0  0  0  0  0  0  0  0  0  0  0
   80.4787   43.8699   43.3702 H   0  0  0  0  0  0  0  0  0  0  0  0
   75.8541   40.4560   38.4287 H   0  0  0  0  0  0  0  0  0  0  0  0
   72.3682   40.4518   39.8900 H   0  0  0  0  0  0  0  0  0  0  0  0
   74.6895   37.0825   39.4895 H   0  0  0  0  0  0  0  0  0  0  0  0
   74.8461   38.1526   38.0863 H   0  0  0  0  0  0  0  0  0  0  0  0
   75.6040   38.7751   40.9816 H   0  0  0  0  0  0  0  0  0  0  0  0
   76.7523   38.4707   39.6842 H   0  0  0  0  0  0  0  0  0  0  0  0
  1 20  1  0  0  0  0
  1  2  1  0  0  0  0
  1 11  2  0  0  0  0
  2  3  1  0  0  0  0
  2  8  2  0  0  0  0
  3  4  2  0  0  0  0
  3  5  1  0  0  0  0
  5  6  1  0  0  0  0
 12  5  1  0  0  0  0
  6  7  2  0  0  0  0
  6  8  1  0  0  0  0
  8  9  1  0  0  0  0
  9 21  1  0  0  0  0
  9 10  2  0  0  0  0
 10 22  1  0  0  0  0
 10 11  1  0  0  0  0
 11 23  1  0  0  0  0
 12 24  1  0  0  0  0
 12 13  1  0  0  0  0
 12 19  1  0  0  0  0
 13 14  2  0  0  0  0
 13 15  1  0  0  0  0
 15 25  1  0  0  0  0
 15 16  1  0  0  0  0
 16 17  2  0  0  0  0
 16 18  1  0  0  0  0
 18 26  1  0  0  0  0
 18 27  1  0  0  0  0
 18 19  1  0  0  0  0
 19 28  1  0  0  0  0
 19 29  1  0  0  0  0
M  ZZC   1 c1
M  ZZC   2 c2
M  ZZC   3 c3
M  ZZC   4 o1
M  ZZC   5 n1
M  ZZC   6 c4
M  ZZC   7 o2
M  ZZC   8 c5
M  ZZC   9 c6
M  ZZC  10 c7
M  ZZC  11 c8
M  ZZC  12 c9
M  ZZC  13 c10
M  ZZC  14 o3
M  ZZC  15 n2
M  ZZC  16 c11
M  ZZC  17 o4
M  ZZC  18 c12
M  ZZC  19 c13
M  ZZC  20 h11
M  ZZC  21 h61
M  ZZC  22 h71
M  ZZC  23 h81
M  ZZC  24 h91
M  ZZC  25 h21
M  ZZC  26 h121
M  ZZC  27 h122
M  ZZC  28 h131
M  ZZC  29 h132
M  ZZM   1 37
M  ZZI   1 125
M  ZZM   2 37
M  ZZI   2 124
M  ZZM   3 3
M  ZZI   3 121
M  ZZM   4 7
M  ZZI   4 81
M  ZZM   5 10
M  ZZI   5 192
M  ZZM   6 3
M  ZZI   6 121
M  ZZM   7 7
M  ZZI   7 81
M  ZZM   8 37
M  ZZI   8 124
M  ZZM   9 37
M  ZZI   9 125
M  ZZM  10 37
M  ZZI  10 125
M  ZZM  11 37
M  ZZI  11 125
M  ZZM  12 1
M  ZZI  12 113
M  ZZM  13 3
M  ZZI  13 121
M  ZZM  14 7
M  ZZI  14 81
M  ZZM  15 10
M  ZZI  15 191
M  ZZM  16 3
M  ZZI  16 121
M  ZZM  17 7
M  ZZI  17 81
M  ZZM  18 1
M  ZZI  18 112
M  ZZM  19 1
M  ZZI  19 112
M  ZZM  20 5
M  ZZI  20 1
M  ZZM  21 5
M  ZZI  21 1
M  ZZM  22 5
M  ZZI  22 1
M  ZZM  23 5
M  ZZI  23 1
M  ZZM  24 5
M  ZZI  24 1
M  ZZM  25 28
M  ZZI  25 11
M  ZZM  26 5
M  ZZI  26 1
M  ZZM  27 5
M  ZZI  27 1
M  ZZM  28 5
M  ZZI  28 1
M  ZZM  29 5
M  ZZI  29 1
M  END
> <IX>
1

> <NAME>
Cereblon_3LQ5_7.pdb

> <Score>
-19.238738

> <Natom>
29

> <Nflex>
1

> <Hbond>
-3.367443

> <Hphob>
-3.502743

> <VwInt>
-22.666307

> <Dsolv>
12.068277

> <SolEl>
5.702377

> <Eintl>
1.465433

> <RecConf>
ND

> <projPath>
Cereblon_maps/

> <NAME_>
Cereblon_3LQ5_7.pdb

$$$$
