Cereblon_6QGH_1.pdb
  MOLSOFT 04032206293D

 31 33  0  0  1  0  0  0  0  0999 V2000
   78.8151   41.6815   43.8147 N   0  0  0  0  0  0  0  0  0  0  0  0
   78.9034   42.4291   42.6302 C   0  0  0  0  0  0  0  0  0  0  0  0
   78.0992   42.1608   41.5356 C   0  0  0  0  0  0  0  0  0  0  0  0
   77.1782   41.0502   41.3298 C   0  0  0  0  0  0  0  0  0  0  0  0
   76.9952   40.1696   42.1572 O   0  0  0  0  0  0  0  0  0  0  0  0
   76.6453   41.2121   40.0664 N   0  0  0  0  0  0  0  0  0  0  0  0
   77.1658   42.3327   39.4517 C   0  0  0  0  0  0  0  0  0  0  0  0
   76.9535   42.7536   38.3219 O   0  0  0  0  0  0  0  0  0  0  0  0
   78.0964   42.9295   40.4111 C   0  0  0  0  0  0  0  0  0  0  0  0
   78.9086   44.0382   40.2891 C   0  0  0  0  0  0  0  0  0  0  0  0
   79.7256   44.3385   41.3729 C   0  0  0  0  0  0  0  0  0  0  0  0
   79.7124   43.5569   42.5298 C   0  0  0  0  0  0  0  0  0  0  0  0
   75.6252   40.3753   39.4310 C   0  0  2  0  0  0  0  0  0  0  0  0
   74.2539   40.9535   39.7360 C   0  0  0  0  0  0  0  0  0  0  0  0
   74.0836   42.1337   39.9929 O   0  0  0  0  0  0  0  0  0  0  0  0
   73.1932   40.0879   39.6229 N   0  0  0  0  0  0  0  0  0  0  0  0
   73.2182   38.7500   39.3112 C   0  0  0  0  0  0  0  0  0  0  0  0
   72.1935   38.0965   39.2039 O   0  0  0  0  0  0  0  0  0  0  0  0
   74.5813   38.1516   39.0574 C   0  0  0  0  0  0  0  0  0  0  0  0
   75.6591   38.9009   39.8208 C   0  0  0  0  0  0  0  0  0  0  0  0
   79.5416   41.7747   44.5214 H   0  0  0  0  0  0  0  0  0  0  0  0
   78.3015   40.7992   43.7855 H   0  0  0  0  0  0  0  0  0  0  0  0
   78.9016   44.6449   39.3912 H   0  0  0  0  0  0  0  0  0  0  0  0
   80.3756   45.2052   41.3265 H   0  0  0  0  0  0  0  0  0  0  0  0
   80.3457   43.8384   43.3657 H   0  0  0  0  0  0  0  0  0  0  0  0
   75.7590   40.4747   38.3525 H   0  0  0  0  0  0  0  0  0  0  0  0
   72.2779   40.4896   39.7843 H   0  0  0  0  0  0  0  0  0  0  0  0
   74.5665   37.1038   39.3738 H   0  0  0  0  0  0  0  0  0  0  0  0
   74.7686   38.1773   37.9795 H   0  0  0  0  0  0  0  0  0  0  0  0
   76.6439   38.4699   39.6136 H   0  0  0  0  0  0  0  0  0  0  0  0
   75.4743   38.7736   40.8914 H   0  0  0  0  0  0  0  0  0  0  0  0
  1  2  1  0  0  0  0
  1 21  1  0  0  0  0
  1 22  1  0  0  0  0
  2  3  1  0  0  0  0
  2 12  2  0  0  0  0
  3  9  2  0  0  0  0
  3  4  1  0  0  0  0
  4  5  2  0  0  0  0
  4  6  1  0  0  0  0
  6  7  1  0  0  0  0
 13  6  1  0  0  0  0
  7  8  2  0  0  0  0
  7  9  1  0  0  0  0
  9 10  1  0  0  0  0
 10 23  1  0  0  0  0
 10 11  2  0  0  0  0
 11 12  1  0  0  0  0
 11 24  1  0  0  0  0
 12 25  1  0  0  0  0
 13 26  1  0  0  0  0
 13 14  1  0  0  0  0
 13 20  1  0  0  0  0
 14 15  2  0  0  0  0
 14 16  1  0  0  0  0
 16 27  1  0  0  0  0
 16 17  1  0  0  0  0
 17 18  2  0  0  0  0
 17 19  1  0  0  0  0
 19 28  1  0  0  0  0
 19 29  1  0  0  0  0
 19 20  1  0  0  0  0
 20 30  1  0  0  0  0
 20 31  1  0  0  0  0
M  ZZC   1 n1
M  ZZC   2 c1
M  ZZC   3 c2
M  ZZC   4 c3
M  ZZC   5 o1
M  ZZC   6 n2
M  ZZC   7 c4
M  ZZC   8 o2
M  ZZC   9 c5
M  ZZC  10 c6
M  ZZC  11 c7
M  ZZC  12 c8
M  ZZC  13 c9
M  ZZC  14 c10
M  ZZC  15 o3
M  ZZC  16 n3
M  ZZC  17 c11
M  ZZC  18 o4
M  ZZC  19 c12
M  ZZC  20 c13
M  ZZC  21 h11
M  ZZC  22 h12
M  ZZC  23 h61
M  ZZC  24 h71
M  ZZC  25 h81
M  ZZC  26 h91
M  ZZC  27 h31
M  ZZC  28 h121
M  ZZC  29 h122
M  ZZC  30 h131
M  ZZC  31 h132
M  ZZM   1 40
M  ZZI   1 224
M  ZZM   2 37
M  ZZI   2 124
M  ZZM   3 37
M  ZZI   3 124
M  ZZM   4 3
M  ZZI   4 121
M  ZZM   5 7
M  ZZI   5 81
M  ZZM   6 10
M  ZZI   6 192
M  ZZM   7 3
M  ZZI   7 121
M  ZZM   8 7
M  ZZI   8 81
M  ZZM   9 37
M  ZZI   9 124
M  ZZM  10 37
M  ZZI  10 125
M  ZZM  11 37
M  ZZI  11 125
M  ZZM  12 37
M  ZZI  12 125
M  ZZM  13 1
M  ZZI  13 113
M  ZZM  14 3
M  ZZI  14 121
M  ZZM  15 7
M  ZZI  15 81
M  ZZM  16 10
M  ZZI  16 191
M  ZZM  17 3
M  ZZI  17 121
M  ZZM  18 7
M  ZZI  18 81
M  ZZM  19 1
M  ZZI  19 112
M  ZZM  20 1
M  ZZI  20 112
M  ZZM  21 28
M  ZZI  21 11
M  ZZM  22 28
M  ZZI  22 11
M  ZZM  23 5
M  ZZI  23 1
M  ZZM  24 5
M  ZZI  24 1
M  ZZM  25 5
M  ZZI  25 1
M  ZZM  26 5
M  ZZI  26 1
M  ZZM  27 28
M  ZZI  27 11
M  ZZM  28 5
M  ZZI  28 1
M  ZZM  29 5
M  ZZI  29 1
M  ZZM  30 5
M  ZZI  30 1
M  ZZM  31 5
M  ZZI  31 1
M  END
> <IX>
1

> <NAME>
Cereblon_6QGH_1.pdb

> <Score>
-18.514414

> <Natom>
31

> <Nflex>
1

> <Hbond>
-3.6868

> <Hphob>
-3.57374

> <VwInt>
-24.294281

> <Dsolv>
15.152326

> <SolEl>
6.869863

> <Eintl>
1.67254

> <RecConf>
ND

> <projPath>
Cereblon_maps/

> <NAME_>
Cereblon_6QGH_1.pdb

$$$$
