Cereblon_5P9J_5.pdb
  MOLSOFT 04032206263D

 29 31  0  0  1  0  0  0  0  0999 V2000
   79.0029   42.4888   42.6726 C   0  0  0  0  0  0  0  0  0  0  0  0
   78.1853   42.1942   41.5962 C   0  0  0  0  0  0  0  0  0  0  0  0
   77.2671   41.0764   41.4104 C   0  0  0  0  0  0  0  0  0  0  0  0
   77.0864   40.2156   42.2580 O   0  0  0  0  0  0  0  0  0  0  0  0
   76.7265   41.2198   40.1456 N   0  0  0  0  0  0  0  0  0  0  0  0
   77.2230   42.3473   39.5229 C   0  0  0  0  0  0  0  0  0  0  0  0
   76.9873   42.7653   38.3966 O   0  0  0  0  0  0  0  0  0  0  0  0
   78.1581   42.9582   40.4682 C   0  0  0  0  0  0  0  0  0  0  0  0
   78.9567   44.0750   40.3271 C   0  0  0  0  0  0  0  0  0  0  0  0
   79.7986   44.3836   41.3893 C   0  0  0  0  0  0  0  0  0  0  0  0
   79.8222   43.6049   42.5467 C   0  0  0  0  0  0  0  0  0  0  0  0
   75.7179   40.3655   39.5128 C   0  0  2  0  0  0  0  0  0  0  0  0
   74.3385   40.9339   39.8018 C   0  0  0  0  0  0  0  0  0  0  0  0
   74.1515   42.1201   40.0164 O   0  0  0  0  0  0  0  0  0  0  0  0
   73.2879   40.0523   39.7260 N   0  0  0  0  0  0  0  0  0  0  0  0
   73.3258   38.7069   39.4526 C   0  0  0  0  0  0  0  0  0  0  0  0
   72.3101   38.0336   39.3930 O   0  0  0  0  0  0  0  0  0  0  0  0
   74.6901   38.1256   39.1769 C   0  0  0  0  0  0  0  0  0  0  0  0
   75.7722   38.8948   39.9138 C   0  0  0  0  0  0  0  0  0  0  0  0
   79.0130   41.8729   43.5677 H   0  0  0  0  0  0  0  0  0  0  0  0
   78.9261   44.6770   39.4266 H   0  0  0  0  0  0  0  0  0  0  0  0
   80.4468   45.2496   41.3207 H   0  0  0  0  0  0  0  0  0  0  0  0
   80.4896   43.8734   43.3609 H   0  0  0  0  0  0  0  0  0  0  0  0
   75.8575   40.4534   38.4336 H   0  0  0  0  0  0  0  0  0  0  0  0
   72.3696   40.4462   39.8893 H   0  0  0  0  0  0  0  0  0  0  0  0
   74.6961   37.0799   39.5002 H   0  0  0  0  0  0  0  0  0  0  0  0
   74.8515   38.1477   38.0947 H   0  0  0  0  0  0  0  0  0  0  0  0
   76.7577   38.4735   39.6909 H   0  0  0  0  0  0  0  0  0  0  0  0
   75.6099   38.7744   40.9888 H   0  0  0  0  0  0  0  0  0  0  0  0
  1 20  1  0  0  0  0
  1  2  1  0  0  0  0
  1 11  2  0  0  0  0
  2  3  1  0  0  0  0
  2  8  2  0  0  0  0
  3  4  2  0  0  0  0
  3  5  1  0  0  0  0
  5  6  1  0  0  0  0
 12  5  1  0  0  0  0
  6  7  2  0  0  0  0
  6  8  1  0  0  0  0
  8  9  1  0  0  0  0
  9 21  1  0  0  0  0
  9 10  2  0  0  0  0
 10 22  1  0  0  0  0
 10 11  1  0  0  0  0
 11 23  1  0  0  0  0
 12 24  1  0  0  0  0
 12 13  1  0  0  0  0
 12 19  1  0  0  0  0
 13 14  2  0  0  0  0
 13 15  1  0  0  0  0
 15 25  1  0  0  0  0
 15 16  1  0  0  0  0
 16 17  2  0  0  0  0
 16 18  1  0  0  0  0
 18 26  1  0  0  0  0
 18 27  1  0  0  0  0
 18 19  1  0  0  0  0
 19 28  1  0  0  0  0
 19 29  1  0  0  0  0
M  ZZC   1 c1
M  ZZC   2 c2
M  ZZC   3 c3
M  ZZC   4 o1
M  ZZC   5 n1
M  ZZC   6 c4
M  ZZC   7 o2
M  ZZC   8 c5
M  ZZC   9 c6
M  ZZC  10 c7
M  ZZC  11 c8
M  ZZC  12 c9
M  ZZC  13 c10
M  ZZC  14 o3
M  ZZC  15 n2
M  ZZC  16 c11
M  ZZC  17 o4
M  ZZC  18 c12
M  ZZC  19 c13
M  ZZC  20 h11
M  ZZC  21 h61
M  ZZC  22 h71
M  ZZC  23 h81
M  ZZC  24 h91
M  ZZC  25 h21
M  ZZC  26 h121
M  ZZC  27 h122
M  ZZC  28 h131
M  ZZC  29 h132
M  ZZM   1 37
M  ZZI   1 125
M  ZZM   2 37
M  ZZI   2 124
M  ZZM   3 3
M  ZZI   3 121
M  ZZM   4 7
M  ZZI   4 81
M  ZZM   5 10
M  ZZI   5 192
M  ZZM   6 3
M  ZZI   6 121
M  ZZM   7 7
M  ZZI   7 81
M  ZZM   8 37
M  ZZI   8 124
M  ZZM   9 37
M  ZZI   9 125
M  ZZM  10 37
M  ZZI  10 125
M  ZZM  11 37
M  ZZI  11 125
M  ZZM  12 1
M  ZZI  12 113
M  ZZM  13 3
M  ZZI  13 121
M  ZZM  14 7
M  ZZI  14 81
M  ZZM  15 10
M  ZZI  15 191
M  ZZM  16 3
M  ZZI  16 121
M  ZZM  17 7
M  ZZI  17 81
M  ZZM  18 1
M  ZZI  18 112
M  ZZM  19 1
M  ZZI  19 112
M  ZZM  20 5
M  ZZI  20 1
M  ZZM  21 5
M  ZZI  21 1
M  ZZM  22 5
M  ZZI  22 1
M  ZZM  23 5
M  ZZI  23 1
M  ZZM  24 5
M  ZZI  24 1
M  ZZM  25 28
M  ZZI  25 11
M  ZZM  26 5
M  ZZI  26 1
M  ZZM  27 5
M  ZZI  27 1
M  ZZM  28 5
M  ZZI  28 1
M  ZZM  29 5
M  ZZI  29 1
M  END
> <IX>
1

> <NAME>
Cereblon_5P9J_5.pdb

> <Score>
-19.402678

> <Natom>
29

> <Nflex>
1

> <Hbond>
-3.369935

> <Hphob>
-3.488217

> <VwInt>
-22.694602

> <Dsolv>
11.97749

> <SolEl>
5.574395

> <Eintl>
1.487911

> <RecConf>
ND

> <projPath>
Cereblon_maps/

> <NAME_>
Cereblon_5P9J_5.pdb

$$$$
