Cereblon_5LLI_13.pdb
  MOLSOFT 04032206263D

 31 33  0  0  1  0  0  0  0  0999 V2000
   78.0670   40.6288   42.6555 N   0  0  0  0  0  0  0  0  0  0  0  0
   78.1216   41.7206   41.7739 C   0  0  0  0  0  0  0  0  0  0  0  0
   77.2965   41.8171   40.6623 C   0  0  0  0  0  0  0  0  0  0  0  0
   76.2281   40.9297   40.2082 C   0  0  0  0  0  0  0  0  0  0  0  0
   75.9766   39.8432   40.7102 O   0  0  0  0  0  0  0  0  0  0  0  0
   75.6097   41.5612   39.1450 N   0  0  0  0  0  0  0  0  0  0  0  0
   76.3386   42.6703   38.7653 C   0  0  0  0  0  0  0  0  0  0  0  0
   76.2388   43.3714   37.7697 O   0  0  0  0  0  0  0  0  0  0  0  0
   77.3737   42.8531   39.7826 C   0  0  0  0  0  0  0  0  0  0  0  0
   78.3163   43.8566   39.9131 C   0  0  0  0  0  0  0  0  0  0  0  0
   79.1825   43.7699   40.9959 C   0  0  0  0  0  0  0  0  0  0  0  0
   79.0826   42.7203   41.9112 C   0  0  0  0  0  0  0  0  0  0  0  0
   74.3631   41.0489   38.5470 C   0  0  1  0  0  0  0  0  0  0  0  0
   73.2242   41.3238   39.5202 C   0  0  0  0  0  0  0  0  0  0  0  0
   73.3999   41.6098   40.6921 O   0  0  0  0  0  0  0  0  0  0  0  0
   71.9549   41.1767   39.0213 N   0  0  0  0  0  0  0  0  0  0  0  0
   71.5782   40.9359   37.7259 C   0  0  0  0  0  0  0  0  0  0  0  0
   70.4162   40.6902   37.4406 O   0  0  0  0  0  0  0  0  0  0  0  0
   72.6950   40.9366   36.7030 C   0  0  0  0  0  0  0  0  0  0  0  0
   73.9329   41.6626   37.2147 C   0  0  0  0  0  0  0  0  0  0  0  0
   78.6440   40.6160   43.4954 H   0  0  0  0  0  0  0  0  0  0  0  0
   77.2686   39.9946   42.5989 H   0  0  0  0  0  0  0  0  0  0  0  0
   78.3764   44.6753   39.2044 H   0  0  0  0  0  0  0  0  0  0  0  0
   79.9409   44.5335   41.1379 H   0  0  0  0  0  0  0  0  0  0  0  0
   79.7716   42.6873   42.7493 H   0  0  0  0  0  0  0  0  0  0  0  0
   74.4620   39.9599   38.4664 H   0  0  0  0  0  0  0  0  0  0  0  0
   71.2036   41.2738   39.6918 H   0  0  0  0  0  0  0  0  0  0  0  0
   72.9322   39.8963   36.4567 H   0  0  0  0  0  0  0  0  0  0  0  0
   72.3325   41.4262   35.7933 H   0  0  0  0  0  0  0  0  0  0  0  0
   73.7013   42.7270   37.3395 H   0  0  0  0  0  0  0  0  0  0  0  0
   74.7274   41.6055   36.4694 H   0  0  0  0  0  0  0  0  0  0  0  0
  1  2  1  0  0  0  0
  1 21  1  0  0  0  0
  1 22  1  0  0  0  0
  2  3  1  0  0  0  0
  2 12  2  0  0  0  0
  3  9  2  0  0  0  0
  3  4  1  0  0  0  0
  4  5  2  0  0  0  0
  4  6  1  0  0  0  0
  6  7  1  0  0  0  0
 13  6  1  0  0  0  0
  7  8  2  0  0  0  0
  7  9  1  0  0  0  0
  9 10  1  0  0  0  0
 10 23  1  0  0  0  0
 10 11  2  0  0  0  0
 11 12  1  0  0  0  0
 11 24  1  0  0  0  0
 12 25  1  0  0  0  0
 13 26  1  0  0  0  0
 13 14  1  0  0  0  0
 13 20  1  0  0  0  0
 14 15  2  0  0  0  0
 14 16  1  0  0  0  0
 16 27  1  0  0  0  0
 16 17  1  0  0  0  0
 17 18  2  0  0  0  0
 17 19  1  0  0  0  0
 19 28  1  0  0  0  0
 19 29  1  0  0  0  0
 19 20  1  0  0  0  0
 20 30  1  0  0  0  0
 20 31  1  0  0  0  0
M  ZZC   1 n1
M  ZZC   2 c1
M  ZZC   3 c2
M  ZZC   4 c3
M  ZZC   5 o1
M  ZZC   6 n2
M  ZZC   7 c4
M  ZZC   8 o2
M  ZZC   9 c5
M  ZZC  10 c6
M  ZZC  11 c7
M  ZZC  12 c8
M  ZZC  13 c9
M  ZZC  14 c10
M  ZZC  15 o3
M  ZZC  16 n3
M  ZZC  17 c11
M  ZZC  18 o4
M  ZZC  19 c12
M  ZZC  20 c13
M  ZZC  21 h11
M  ZZC  22 h12
M  ZZC  23 h61
M  ZZC  24 h71
M  ZZC  25 h81
M  ZZC  26 h91
M  ZZC  27 h31
M  ZZC  28 h121
M  ZZC  29 h122
M  ZZC  30 h131
M  ZZC  31 h132
M  ZZM   1 40
M  ZZI   1 224
M  ZZM   2 37
M  ZZI   2 124
M  ZZM   3 37
M  ZZI   3 124
M  ZZM   4 3
M  ZZI   4 121
M  ZZM   5 7
M  ZZI   5 81
M  ZZM   6 10
M  ZZI   6 192
M  ZZM   7 3
M  ZZI   7 121
M  ZZM   8 7
M  ZZI   8 81
M  ZZM   9 37
M  ZZI   9 124
M  ZZM  10 37
M  ZZI  10 125
M  ZZM  11 37
M  ZZI  11 125
M  ZZM  12 37
M  ZZI  12 125
M  ZZM  13 1
M  ZZI  13 113
M  ZZM  14 3
M  ZZI  14 121
M  ZZM  15 7
M  ZZI  15 81
M  ZZM  16 10
M  ZZI  16 191
M  ZZM  17 3
M  ZZI  17 121
M  ZZM  18 7
M  ZZI  18 81
M  ZZM  19 1
M  ZZI  19 112
M  ZZM  20 1
M  ZZI  20 112
M  ZZM  21 28
M  ZZI  21 11
M  ZZM  22 28
M  ZZI  22 11
M  ZZM  23 5
M  ZZI  23 1
M  ZZM  24 5
M  ZZI  24 1
M  ZZM  25 5
M  ZZI  25 1
M  ZZM  26 5
M  ZZI  26 1
M  ZZM  27 28
M  ZZI  27 11
M  ZZM  28 5
M  ZZI  28 1
M  ZZM  29 5
M  ZZI  29 1
M  ZZM  30 5
M  ZZI  30 1
M  ZZM  31 5
M  ZZI  31 1
M  END
> <IX>
1

> <NAME>
Cereblon_5LLI_13.pdb

> <Score>
-14.668823

> <Natom>
31

> <Nflex>
1

> <Hbond>
-2.75451

> <Hphob>
-3.725846

> <VwInt>
-27.04677

> <Dsolv>
17.182858

> <SolEl>
7.315498

> <Eintl>
5.879671

> <RecConf>
ND

> <projPath>
Cereblon_maps/

> <NAME_>
Cereblon_5LLI_13.pdb

$$$$
