Cereblon_5V9O_1.pdb
  MOLSOFT 04032206273D

 31 33  0  0  1  0  0  0  0  0999 V2000
   78.8201   41.6789   43.8047 N   0  0  0  0  0  0  0  0  0  0  0  0
   78.8945   42.4363   42.6251 C   0  0  0  0  0  0  0  0  0  0  0  0
   78.0933   42.1647   41.5292 C   0  0  0  0  0  0  0  0  0  0  0  0
   77.1606   41.0643   41.3266 C   0  0  0  0  0  0  0  0  0  0  0  0
   76.9813   40.1839   42.1543 O   0  0  0  0  0  0  0  0  0  0  0  0
   76.6184   41.2350   40.0696 N   0  0  0  0  0  0  0  0  0  0  0  0
   77.1555   42.3402   39.4437 C   0  0  0  0  0  0  0  0  0  0  0  0
   76.9579   42.7522   38.3082 O   0  0  0  0  0  0  0  0  0  0  0  0
   78.0949   42.9314   40.4023 C   0  0  0  0  0  0  0  0  0  0  0  0
   78.9120   44.0364   40.2775 C   0  0  0  0  0  0  0  0  0  0  0  0
   79.7323   44.3342   41.3591 C   0  0  0  0  0  0  0  0  0  0  0  0
   79.7139   43.5563   42.5191 C   0  0  0  0  0  0  0  0  0  0  0  0
   75.6096   40.3859   39.4318 C   0  0  2  0  0  0  0  0  0  0  0  0
   74.2368   40.9706   39.7133 C   0  0  0  0  0  0  0  0  0  0  0  0
   74.0669   42.1492   39.9748 O   0  0  0  0  0  0  0  0  0  0  0  0
   73.1760   40.1118   39.5722 N   0  0  0  0  0  0  0  0  0  0  0  0
   73.2016   38.7742   39.2630 C   0  0  0  0  0  0  0  0  0  0  0  0
   72.1775   38.1274   39.1194 O   0  0  0  0  0  0  0  0  0  0  0  0
   74.5672   38.1602   39.0620 C   0  0  0  0  0  0  0  0  0  0  0  0
   75.6359   38.9163   39.8350 C   0  0  0  0  0  0  0  0  0  0  0  0
   79.5887   41.7097   44.4715 H   0  0  0  0  0  0  0  0  0  0  0  0
   78.2180   40.8538   43.8113 H   0  0  0  0  0  0  0  0  0  0  0  0
   78.9046   44.6418   39.3790 H   0  0  0  0  0  0  0  0  0  0  0  0
   80.3926   45.1927   41.3076 H   0  0  0  0  0  0  0  0  0  0  0  0
   80.3575   43.8309   43.3495 H   0  0  0  0  0  0  0  0  0  0  0  0
   75.7536   40.4673   38.3535 H   0  0  0  0  0  0  0  0  0  0  0  0
   72.2584   40.5181   39.7086 H   0  0  0  0  0  0  0  0  0  0  0  0
   74.5340   37.1196   39.4000 H   0  0  0  0  0  0  0  0  0  0  0  0
   74.7813   38.1598   37.9890 H   0  0  0  0  0  0  0  0  0  0  0  0
   75.4396   38.7906   40.9034 H   0  0  0  0  0  0  0  0  0  0  0  0
   76.6240   38.4869   39.6400 H   0  0  0  0  0  0  0  0  0  0  0  0
  1  2  1  0  0  0  0
  1 21  1  0  0  0  0
  1 22  1  0  0  0  0
  2  3  1  0  0  0  0
  2 12  2  0  0  0  0
  3  9  2  0  0  0  0
  3  4  1  0  0  0  0
  4  5  2  0  0  0  0
  4  6  1  0  0  0  0
  6  7  1  0  0  0  0
 13  6  1  0  0  0  0
  7  8  2  0  0  0  0
  7  9  1  0  0  0  0
  9 10  1  0  0  0  0
 10 23  1  0  0  0  0
 10 11  2  0  0  0  0
 11 12  1  0  0  0  0
 11 24  1  0  0  0  0
 12 25  1  0  0  0  0
 13 26  1  0  0  0  0
 13 14  1  0  0  0  0
 13 20  1  0  0  0  0
 14 15  2  0  0  0  0
 14 16  1  0  0  0  0
 16 27  1  0  0  0  0
 16 17  1  0  0  0  0
 17 18  2  0  0  0  0
 17 19  1  0  0  0  0
 19 28  1  0  0  0  0
 19 29  1  0  0  0  0
 19 20  1  0  0  0  0
 20 30  1  0  0  0  0
 20 31  1  0  0  0  0
M  ZZC   1 n1
M  ZZC   2 c1
M  ZZC   3 c2
M  ZZC   4 c3
M  ZZC   5 o1
M  ZZC   6 n2
M  ZZC   7 c4
M  ZZC   8 o2
M  ZZC   9 c5
M  ZZC  10 c6
M  ZZC  11 c7
M  ZZC  12 c8
M  ZZC  13 c9
M  ZZC  14 c10
M  ZZC  15 o3
M  ZZC  16 n3
M  ZZC  17 c11
M  ZZC  18 o4
M  ZZC  19 c12
M  ZZC  20 c13
M  ZZC  21 h11
M  ZZC  22 h12
M  ZZC  23 h61
M  ZZC  24 h71
M  ZZC  25 h81
M  ZZC  26 h91
M  ZZC  27 h31
M  ZZC  28 h121
M  ZZC  29 h122
M  ZZC  30 h131
M  ZZC  31 h132
M  ZZM   1 40
M  ZZI   1 224
M  ZZM   2 37
M  ZZI   2 124
M  ZZM   3 37
M  ZZI   3 124
M  ZZM   4 3
M  ZZI   4 121
M  ZZM   5 7
M  ZZI   5 81
M  ZZM   6 10
M  ZZI   6 192
M  ZZM   7 3
M  ZZI   7 121
M  ZZM   8 7
M  ZZI   8 81
M  ZZM   9 37
M  ZZI   9 124
M  ZZM  10 37
M  ZZI  10 125
M  ZZM  11 37
M  ZZI  11 125
M  ZZM  12 37
M  ZZI  12 125
M  ZZM  13 1
M  ZZI  13 113
M  ZZM  14 3
M  ZZI  14 121
M  ZZM  15 7
M  ZZI  15 81
M  ZZM  16 10
M  ZZI  16 191
M  ZZM  17 3
M  ZZI  17 121
M  ZZM  18 7
M  ZZI  18 81
M  ZZM  19 1
M  ZZI  19 112
M  ZZM  20 1
M  ZZI  20 112
M  ZZM  21 28
M  ZZI  21 11
M  ZZM  22 28
M  ZZI  22 11
M  ZZM  23 5
M  ZZI  23 1
M  ZZM  24 5
M  ZZI  24 1
M  ZZM  25 5
M  ZZI  25 1
M  ZZM  26 5
M  ZZI  26 1
M  ZZM  27 28
M  ZZI  27 11
M  ZZM  28 5
M  ZZI  28 1
M  ZZM  29 5
M  ZZI  29 1
M  ZZM  30 5
M  ZZI  30 1
M  ZZM  31 5
M  ZZI  31 1
M  END
> <IX>
1

> <NAME>
Cereblon_5V9O_1.pdb

> <Score>
-18.444983

> <Natom>
31

> <Nflex>
1

> <Hbond>
-3.720108

> <Hphob>
-3.535953

> <VwInt>
-24.257892

> <Dsolv>
15.280684

> <SolEl>
6.571295

> <Eintl>
1.99384

> <RecConf>
ND

> <projPath>
Cereblon_maps/

> <NAME_>
Cereblon_5V9O_1.pdb

$$$$
