Cereblon_3MXF_14.pdb
  MOLSOFT 04032206213D

 30 32  0  0  1  0  0  0  0  0999 V2000
   77.8771   41.4381   42.1534 C   0  0  0  0  0  0  0  0  0  0  0  0
   77.1809   41.4201   40.9537 C   0  0  0  0  0  0  0  0  0  0  0  0
   77.4270   42.3688   39.9982 C   0  0  0  0  0  0  0  0  0  0  0  0
   76.5383   42.1122   38.8578 C   0  0  0  0  0  0  0  0  0  0  0  0
   76.5279   42.7597   37.8203 O   0  0  0  0  0  0  0  0  0  0  0  0
   75.7359   41.0419   39.2080 N   0  0  0  0  0  0  0  0  0  0  0  0
   74.4424   40.7696   38.5575 C   0  0  2  0  0  0  0  0  0  0  0  0
   73.3597   41.5441   39.2849 C   0  0  0  0  0  0  0  0  0  0  0  0
   73.6137   42.4413   40.0692 O   0  0  0  0  0  0  0  0  0  0  0  0
   72.0660   41.2094   38.9698 N   0  0  0  0  0  0  0  0  0  0  0  0
   71.6294   40.1351   38.2344 C   0  0  0  0  0  0  0  0  0  0  0  0
   70.4452   39.9833   37.9703 O   0  0  0  0  0  0  0  0  0  0  0  0
   72.7081   39.1884   37.7428 C   0  0  0  0  0  0  0  0  0  0  0  0
   74.0071   39.3101   38.5356 C   0  0  0  0  0  0  0  0  0  0  0  0
   76.1200   40.4870   40.4933 C   0  0  0  0  0  0  0  0  0  0  0  0
   78.3651   43.3746   40.1619 C   0  0  0  0  0  0  0  0  0  0  0  0
   79.0791   43.3872   41.3532 C   0  0  0  0  0  0  0  0  0  0  0  0
   78.8305   42.4331   42.3395 C   0  0  0  0  0  0  0  0  0  0  0  0
   77.6886   40.7045   42.9316 H   0  0  0  0  0  0  0  0  0  0  0  0
   74.4807   41.1839   37.5434 H   0  0  0  0  0  0  0  0  0  0  0  0
   71.3525   41.8260   39.3392 H   0  0  0  0  0  0  0  0  0  0  0  0
   72.3284   38.1643   37.8132 H   0  0  0  0  0  0  0  0  0  0  0  0
   72.8864   39.4082   36.6846 H   0  0  0  0  0  0  0  0  0  0  0  0
   74.7794   38.6775   38.0895 H   0  0  0  0  0  0  0  0  0  0  0  0
   73.8512   38.9400   39.5558 H   0  0  0  0  0  0  0  0  0  0  0  0
   76.4908   39.4658   40.3547 H   0  0  0  0  0  0  0  0  0  0  0  0
   75.2671   40.5111   41.1651 H   0  0  0  0  0  0  0  0  0  0  0  0
   78.5367   44.1216   39.3941 H   0  0  0  0  0  0  0  0  0  0  0  0
   79.8247   44.1570   41.5247 H   0  0  0  0  0  0  0  0  0  0  0  0
   79.3880   42.4691   43.2704 H   0  0  0  0  0  0  0  0  0  0  0  0
  1 19  1  0  0  0  0
  1 18  2  0  0  0  0
  1  2  1  0  0  0  0
  2  3  2  0  0  0  0
  2 15  1  0  0  0  0
  3 16  1  0  0  0  0
  3  4  1  0  0  0  0
  4  6  1  0  0  0  0
  4  5  2  0  0  0  0
  6 15  1  0  0  0  0
  7  6  1  0  0  0  0
  7 20  1  0  0  0  0
  7  8  1  0  0  0  0
  7 14  1  0  0  0  0
  8  9  2  0  0  0  0
  8 10  1  0  0  0  0
 10 21  1  0  0  0  0
 10 11  1  0  0  0  0
 11 12  2  0  0  0  0
 11 13  1  0  0  0  0
 13 22  1  0  0  0  0
 13 23  1  0  0  0  0
 13 14  1  0  0  0  0
 14 24  1  0  0  0  0
 14 25  1  0  0  0  0
 15 26  1  0  0  0  0
 15 27  1  0  0  0  0
 16 17  2  0  0  0  0
 16 28  1  0  0  0  0
 17 18  1  0  0  0  0
 17 29  1  0  0  0  0
 18 30  1  0  0  0  0
M  ZZC   1 c1
M  ZZC   2 c2
M  ZZC   3 c3
M  ZZC   4 c4
M  ZZC   5 o1
M  ZZC   6 n1
M  ZZC   7 c5
M  ZZC   8 c6
M  ZZC   9 o2
M  ZZC  10 n2
M  ZZC  11 c7
M  ZZC  12 o3
M  ZZC  13 c8
M  ZZC  14 c9
M  ZZC  15 c10
M  ZZC  16 c11
M  ZZC  17 c12
M  ZZC  18 c13
M  ZZC  19 h11
M  ZZC  20 h51
M  ZZC  21 h21
M  ZZC  22 h81
M  ZZC  23 h82
M  ZZC  24 h91
M  ZZC  25 h92
M  ZZC  26 h101
M  ZZC  27 h102
M  ZZC  28 h111
M  ZZC  29 h121
M  ZZC  30 h131
M  ZZM   1 37
M  ZZI   1 125
M  ZZM   2 37
M  ZZI   2 124
M  ZZM   3 37
M  ZZI   3 124
M  ZZM   4 3
M  ZZI   4 121
M  ZZM   5 7
M  ZZI   5 81
M  ZZM   6 10
M  ZZI   6 192
M  ZZM   7 1
M  ZZI   7 113
M  ZZM   8 3
M  ZZI   8 121
M  ZZM   9 7
M  ZZI   9 81
M  ZZM  10 10
M  ZZI  10 191
M  ZZM  11 3
M  ZZI  11 121
M  ZZM  12 7
M  ZZI  12 81
M  ZZM  13 1
M  ZZI  13 112
M  ZZM  14 1
M  ZZI  14 112
M  ZZM  15 1
M  ZZI  15 112
M  ZZM  16 37
M  ZZI  16 125
M  ZZM  17 37
M  ZZI  17 125
M  ZZM  18 37
M  ZZI  18 125
M  ZZM  19 5
M  ZZI  19 1
M  ZZM  20 5
M  ZZI  20 1
M  ZZM  21 28
M  ZZI  21 11
M  ZZM  22 5
M  ZZI  22 1
M  ZZM  23 5
M  ZZI  23 1
M  ZZM  24 5
M  ZZI  24 1
M  ZZM  25 5
M  ZZI  25 1
M  ZZM  26 5
M  ZZI  26 1
M  ZZM  27 5
M  ZZI  27 1
M  ZZM  28 5
M  ZZI  28 1
M  ZZM  29 5
M  ZZI  29 1
M  ZZM  30 5
M  ZZI  30 1
M  END
> <IX>
1

> <NAME>
Cereblon_3MXF_14.pdb

> <Score>
-15.501906

> <Natom>
30

> <Nflex>
1

> <Hbond>
-4.223038

> <Hphob>
-3.714514

> <VwInt>
-19.428372

> <Dsolv>
13.74283

> <SolEl>
6.318901

> <Eintl>
3.3698

> <RecConf>
ND

> <projPath>
Cereblon_maps/

> <NAME_>
Cereblon_3MXF_14.pdb

$$$$
