Cereblon_1HWK_26.pdb
  MOLSOFT 04032206193D

 29 31  0  0  1  0  0  0  0  0999 V2000
   76.9822   39.3722   41.1244 C   0  0  0  0  0  0  0  0  0  0  0  0
   76.3139   40.4958   40.6543 C   0  0  0  0  0  0  0  0  0  0  0  0
   75.3249   40.2857   39.7106 C   0  0  0  0  0  0  0  0  0  0  0  0
   74.4530   41.2485   39.0441 C   0  0  0  0  0  0  0  0  0  0  0  0
   74.4438   42.4337   39.3389 O   0  0  0  0  0  0  0  0  0  0  0  0
   73.6922   40.5316   38.1385 N   0  0  0  0  0  0  0  0  0  0  0  0
   73.9587   39.1812   38.2477 C   0  0  0  0  0  0  0  0  0  0  0  0
   73.4536   38.2391   37.6546 O   0  0  0  0  0  0  0  0  0  0  0  0
   75.0153   39.0443   39.2488 C   0  0  0  0  0  0  0  0  0  0  0  0
   75.6635   37.9114   39.7059 C   0  0  0  0  0  0  0  0  0  0  0  0
   76.6605   38.0979   40.6573 C   0  0  0  0  0  0  0  0  0  0  0  0
   72.6609   41.0681   37.2373 C   0  0  1  0  0  0  0  0  0  0  0  0
   71.3536   41.2724   37.9959 C   0  0  0  0  0  0  0  0  0  0  0  0
   71.0393   40.6161   38.9780 O   0  0  0  0  0  0  0  0  0  0  0  0
   70.4850   42.1950   37.4586 N   0  0  0  0  0  0  0  0  0  0  0  0
   70.6747   43.0407   36.3974 C   0  0  0  0  0  0  0  0  0  0  0  0
   69.8511   43.8962   36.1109 O   0  0  0  0  0  0  0  0  0  0  0  0
   71.9443   42.8260   35.6127 C   0  0  0  0  0  0  0  0  0  0  0  0
   73.0731   42.3470   36.5118 C   0  0  0  0  0  0  0  0  0  0  0  0
   77.7672   39.4904   41.8657 H   0  0  0  0  0  0  0  0  0  0  0  0
   76.5680   41.4908   41.0067 H   0  0  0  0  0  0  0  0  0  0  0  0
   75.4129   36.9221   39.3332 H   0  0  0  0  0  0  0  0  0  0  0  0
   77.2001   37.2377   41.0407 H   0  0  0  0  0  0  0  0  0  0  0  0
   72.4501   40.2961   36.4880 H   0  0  0  0  0  0  0  0  0  0  0  0
   69.6150   42.3258   37.9535 H   0  0  0  0  0  0  0  0  0  0  0  0
   71.7405   42.1045   34.8139 H   0  0  0  0  0  0  0  0  0  0  0  0
   72.2208   43.7764   35.1523 H   0  0  0  0  0  0  0  0  0  0  0  0
   73.3186   43.1406   37.2224 H   0  0  0  0  0  0  0  0  0  0  0  0
   73.9752   42.1705   35.9177 H   0  0  0  0  0  0  0  0  0  0  0  0
  1 20  1  0  0  0  0
  1  2  1  0  0  0  0
  1 11  2  0  0  0  0
  2 21  1  0  0  0  0
  2  3  2  0  0  0  0
  3  4  1  0  0  0  0
  3  9  1  0  0  0  0
  4  5  2  0  0  0  0
  4  6  1  0  0  0  0
  6  7  1  0  0  0  0
 12  6  1  0  0  0  0
  7  8  2  0  0  0  0
  7  9  1  0  0  0  0
  9 10  2  0  0  0  0
 10 22  1  0  0  0  0
 10 11  1  0  0  0  0
 11 23  1  0  0  0  0
 12 24  1  0  0  0  0
 12 13  1  0  0  0  0
 12 19  1  0  0  0  0
 13 14  2  0  0  0  0
 13 15  1  0  0  0  0
 15 25  1  0  0  0  0
 15 16  1  0  0  0  0
 16 17  2  0  0  0  0
 16 18  1  0  0  0  0
 18 26  1  0  0  0  0
 18 27  1  0  0  0  0
 18 19  1  0  0  0  0
 19 28  1  0  0  0  0
 19 29  1  0  0  0  0
M  ZZC   1 c1
M  ZZC   2 c2
M  ZZC   3 c3
M  ZZC   4 c4
M  ZZC   5 o1
M  ZZC   6 n1
M  ZZC   7 c5
M  ZZC   8 o2
M  ZZC   9 c6
M  ZZC  10 c7
M  ZZC  11 c8
M  ZZC  12 c9
M  ZZC  13 c10
M  ZZC  14 o3
M  ZZC  15 n2
M  ZZC  16 c11
M  ZZC  17 o4
M  ZZC  18 c12
M  ZZC  19 c13
M  ZZC  20 h11
M  ZZC  21 h21
M  ZZC  22 h71
M  ZZC  23 h81
M  ZZC  24 h91
M  ZZC  25 h01
M  ZZC  26 h121
M  ZZC  27 h122
M  ZZC  28 h131
M  ZZC  29 h132
M  ZZM   1 37
M  ZZI   1 125
M  ZZM   2 37
M  ZZI   2 125
M  ZZM   3 37
M  ZZI   3 124
M  ZZM   4 3
M  ZZI   4 121
M  ZZM   5 7
M  ZZI   5 81
M  ZZM   6 10
M  ZZI   6 192
M  ZZM   7 3
M  ZZI   7 121
M  ZZM   8 7
M  ZZI   8 81
M  ZZM   9 37
M  ZZI   9 124
M  ZZM  10 37
M  ZZI  10 125
M  ZZM  11 37
M  ZZI  11 125
M  ZZM  12 1
M  ZZI  12 113
M  ZZM  13 3
M  ZZI  13 121
M  ZZM  14 7
M  ZZI  14 81
M  ZZM  15 10
M  ZZI  15 191
M  ZZM  16 3
M  ZZI  16 121
M  ZZM  17 7
M  ZZI  17 81
M  ZZM  18 1
M  ZZI  18 112
M  ZZM  19 1
M  ZZI  19 112
M  ZZM  20 5
M  ZZI  20 1
M  ZZM  21 5
M  ZZI  21 1
M  ZZM  22 5
M  ZZI  22 1
M  ZZM  23 5
M  ZZI  23 1
M  ZZM  24 5
M  ZZI  24 1
M  ZZM  25 28
M  ZZI  25 11
M  ZZM  26 5
M  ZZI  26 1
M  ZZM  27 5
M  ZZI  27 1
M  ZZM  28 5
M  ZZI  28 1
M  ZZM  29 5
M  ZZI  29 1
M  END
> <IX>
1

> <NAME>
Cereblon_1HWK_26.pdb

> <Score>
-20.801624

> <Natom>
29

> <Nflex>
1

> <Hbond>
-4.566821

> <Hphob>
-3.538583

> <VwInt>
-22.403527

> <Dsolv>
13.411462

> <SolEl>
6.854539

> <Eintl>
0.573698

> <RecConf>
ND

> <projPath>
Cereblon_maps/

> <NAME_>
Cereblon_1HWK_26.pdb

$$$$
