Cereblon_5VBP_33.pdb
  MOLSOFT 04032206283D

 30 32  0  0  1  0  0  0  0  0999 V2000
   74.9637   37.6968   39.0782 C   0  0  0  0  0  0  0  0  0  0  0  0
   74.4992   38.9714   38.8010 C   0  0  0  0  0  0  0  0  0  0  0  0
   75.0197   40.0458   39.4686 C   0  0  0  0  0  0  0  0  0  0  0  0
   74.3372   41.2502   38.9986 C   0  0  0  0  0  0  0  0  0  0  0  0
   74.5427   42.3704   39.4427 O   0  0  0  0  0  0  0  0  0  0  0  0
   73.4590   40.8489   38.0075 N   0  0  0  0  0  0  0  0  0  0  0  0
   72.5737   41.7615   37.2735 C   0  0  2  0  0  0  0  0  0  0  0  0
   71.0899   41.5538   37.5753 C   0  0  0  0  0  0  0  0  0  0  0  0
   70.6529   40.9021   38.5123 O   0  0  0  0  0  0  0  0  0  0  0  0
   70.2293   42.1923   36.7127 N   0  0  0  0  0  0  0  0  0  0  0  0
   70.5287   42.8320   35.5372 C   0  0  0  0  0  0  0  0  0  0  0  0
   69.6630   43.3723   34.8686 O   0  0  0  0  0  0  0  0  0  0  0  0
   71.9865   42.8636   35.1453 C   0  0  0  0  0  0  0  0  0  0  0  0
   72.7719   41.7194   35.7678 C   0  0  0  0  0  0  0  0  0  0  0  0
   73.4616   39.4069   37.8268 C   0  0  0  0  0  0  0  0  0  0  0  0
   76.0223   39.9427   40.4152 C   0  0  0  0  0  0  0  0  0  0  0  0
   76.5001   38.6691   40.6856 C   0  0  0  0  0  0  0  0  0  0  0  0
   75.9716   37.5607   40.0269 C   0  0  0  0  0  0  0  0  0  0  0  0
   74.5641   36.8291   38.5618 H   0  0  0  0  0  0  0  0  0  0  0  0
   72.8315   42.7688   37.6039 H   0  0  0  0  0  0  0  0  0  0  0  0
   69.2433   42.1387   36.9399 H   0  0  0  0  0  0  0  0  0  0  0  0
   72.0541   42.8071   34.0548 H   0  0  0  0  0  0  0  0  0  0  0  0
   72.3917   43.8285   35.4679 H   0  0  0  0  0  0  0  0  0  0  0  0
   72.4328   40.7615   35.3571 H   0  0  0  0  0  0  0  0  0  0  0  0
   73.8329   41.8202   35.5204 H   0  0  0  0  0  0  0  0  0  0  0  0
   73.7450   39.1633   36.7971 H   0  0  0  0  0  0  0  0  0  0  0  0
   72.4783   38.9940   38.0751 H   0  0  0  0  0  0  0  0  0  0  0  0
   76.4219   40.8156   40.9223 H   0  0  0  0  0  0  0  0  0  0  0  0
   77.2896   38.5374   41.4188 H   0  0  0  0  0  0  0  0  0  0  0  0
   76.3588   36.5726   40.2546 H   0  0  0  0  0  0  0  0  0  0  0  0
  1 19  1  0  0  0  0
  1 18  2  0  0  0  0
  1  2  1  0  0  0  0
  2  3  2  0  0  0  0
  2 15  1  0  0  0  0
  3 16  1  0  0  0  0
  3  4  1  0  0  0  0
  4  6  1  0  0  0  0
  4  5  2  0  0  0  0
  6 15  1  0  0  0  0
  7  6  1  0  0  0  0
  7 20  1  0  0  0  0
  7  8  1  0  0  0  0
  7 14  1  0  0  0  0
  8  9  2  0  0  0  0
  8 10  1  0  0  0  0
 10 21  1  0  0  0  0
 10 11  1  0  0  0  0
 11 12  2  0  0  0  0
 11 13  1  0  0  0  0
 13 22  1  0  0  0  0
 13 23  1  0  0  0  0
 13 14  1  0  0  0  0
 14 24  1  0  0  0  0
 14 25  1  0  0  0  0
 15 26  1  0  0  0  0
 15 27  1  0  0  0  0
 16 17  2  0  0  0  0
 16 28  1  0  0  0  0
 17 18  1  0  0  0  0
 17 29  1  0  0  0  0
 18 30  1  0  0  0  0
M  ZZC   1 c1
M  ZZC   2 c2
M  ZZC   3 c3
M  ZZC   4 c4
M  ZZC   5 o1
M  ZZC   6 n1
M  ZZC   7 c5
M  ZZC   8 c6
M  ZZC   9 o2
M  ZZC  10 n2
M  ZZC  11 c7
M  ZZC  12 o3
M  ZZC  13 c8
M  ZZC  14 c9
M  ZZC  15 c10
M  ZZC  16 c11
M  ZZC  17 c12
M  ZZC  18 c13
M  ZZC  19 h11
M  ZZC  20 h51
M  ZZC  21 h21
M  ZZC  22 h81
M  ZZC  23 h82
M  ZZC  24 h91
M  ZZC  25 h92
M  ZZC  26 h101
M  ZZC  27 h102
M  ZZC  28 h111
M  ZZC  29 h121
M  ZZC  30 h131
M  ZZM   1 37
M  ZZI   1 125
M  ZZM   2 37
M  ZZI   2 124
M  ZZM   3 37
M  ZZI   3 124
M  ZZM   4 3
M  ZZI   4 121
M  ZZM   5 7
M  ZZI   5 81
M  ZZM   6 10
M  ZZI   6 192
M  ZZM   7 1
M  ZZI   7 113
M  ZZM   8 3
M  ZZI   8 121
M  ZZM   9 7
M  ZZI   9 81
M  ZZM  10 10
M  ZZI  10 191
M  ZZM  11 3
M  ZZI  11 121
M  ZZM  12 7
M  ZZI  12 81
M  ZZM  13 1
M  ZZI  13 112
M  ZZM  14 1
M  ZZI  14 112
M  ZZM  15 1
M  ZZI  15 112
M  ZZM  16 37
M  ZZI  16 125
M  ZZM  17 37
M  ZZI  17 125
M  ZZM  18 37
M  ZZI  18 125
M  ZZM  19 5
M  ZZI  19 1
M  ZZM  20 5
M  ZZI  20 1
M  ZZM  21 28
M  ZZI  21 11
M  ZZM  22 5
M  ZZI  22 1
M  ZZM  23 5
M  ZZI  23 1
M  ZZM  24 5
M  ZZI  24 1
M  ZZM  25 5
M  ZZI  25 1
M  ZZM  26 5
M  ZZI  26 1
M  ZZM  27 5
M  ZZI  27 1
M  ZZM  28 5
M  ZZI  28 1
M  ZZM  29 5
M  ZZI  29 1
M  ZZM  30 5
M  ZZI  30 1
M  END
> <IX>
1

> <NAME>
Cereblon_5VBP_33.pdb

> <Score>
-15.701203

> <Natom>
30

> <Nflex>
1

> <Hbond>
-3.676549

> <Hphob>
-3.544919

> <VwInt>
-20.268074

> <Dsolv>
12.890355

> <SolEl>
8.083744

> <Eintl>
1.067665

> <RecConf>
ND

> <projPath>
Cereblon_maps/

> <NAME_>
Cereblon_5VBP_33.pdb

$$$$
