Cereblon_1EJ1_15.pdb
  MOLSOFT 04032206183D

 30 32  0  0  1  0  0  0  0  0999 V2000
   75.6591   37.9061   39.7366 C   0  0  0  0  0  0  0  0  0  0  0  0
   74.9723   39.0110   39.2609 C   0  0  0  0  0  0  0  0  0  0  0  0
   75.2925   40.2598   39.7125 C   0  0  0  0  0  0  0  0  0  0  0  0
   74.4129   41.2260   39.0528 C   0  0  0  0  0  0  0  0  0  0  0  0
   74.4231   42.4200   39.3108 O   0  0  0  0  0  0  0  0  0  0  0  0
   73.6356   40.5121   38.1530 N   0  0  0  0  0  0  0  0  0  0  0  0
   72.6021   41.0427   37.2483 C   0  0  1  0  0  0  0  0  0  0  0  0
   71.2792   41.2589   37.9817 C   0  0  0  0  0  0  0  0  0  0  0  0
   70.9211   40.5804   38.9336 O   0  0  0  0  0  0  0  0  0  0  0  0
   70.4393   42.2084   37.4462 N   0  0  0  0  0  0  0  0  0  0  0  0
   70.6490   43.0431   36.3809 C   0  0  0  0  0  0  0  0  0  0  0  0
   69.8424   43.9119   36.0866 O   0  0  0  0  0  0  0  0  0  0  0  0
   71.9126   42.7920   35.5983 C   0  0  0  0  0  0  0  0  0  0  0  0
   73.0307   42.3092   36.5080 C   0  0  0  0  0  0  0  0  0  0  0  0
   73.8656   39.0817   38.2702 C   0  0  0  0  0  0  0  0  0  0  0  0
   76.2972   40.4986   40.6324 C   0  0  0  0  0  0  0  0  0  0  0  0
   76.9898   39.3963   41.1105 C   0  0  0  0  0  0  0  0  0  0  0  0
   76.6725   38.1158   40.6651 C   0  0  0  0  0  0  0  0  0  0  0  0
   75.4221   36.9040   39.3928 H   0  0  0  0  0  0  0  0  0  0  0  0
   72.4127   40.2645   36.4995 H   0  0  0  0  0  0  0  0  0  0  0  0
   69.5661   42.3519   37.9320 H   0  0  0  0  0  0  0  0  0  0  0  0
   71.6961   42.0600   34.8129 H   0  0  0  0  0  0  0  0  0  0  0  0
   72.2066   43.7284   35.1199 H   0  0  0  0  0  0  0  0  0  0  0  0
   73.9336   42.1161   35.9197 H   0  0  0  0  0  0  0  0  0  0  0  0
   73.2823   43.1086   37.2103 H   0  0  0  0  0  0  0  0  0  0  0  0
   74.1552   38.6714   37.2971 H   0  0  0  0  0  0  0  0  0  0  0  0
   72.9591   38.5949   38.6457 H   0  0  0  0  0  0  0  0  0  0  0  0
   76.5438   41.5034   40.9602 H   0  0  0  0  0  0  0  0  0  0  0  0
   77.7864   39.5356   41.8350 H   0  0  0  0  0  0  0  0  0  0  0  0
   77.2286   37.2663   41.0487 H   0  0  0  0  0  0  0  0  0  0  0  0
  1 19  1  0  0  0  0
  1 18  2  0  0  0  0
  1  2  1  0  0  0  0
  2  3  2  0  0  0  0
  2 15  1  0  0  0  0
  3 16  1  0  0  0  0
  3  4  1  0  0  0  0
  4  6  1  0  0  0  0
  4  5  2  0  0  0  0
  6 15  1  0  0  0  0
  7  6  1  0  0  0  0
  7 20  1  0  0  0  0
  7  8  1  0  0  0  0
  7 14  1  0  0  0  0
  8  9  2  0  0  0  0
  8 10  1  0  0  0  0
 10 21  1  0  0  0  0
 10 11  1  0  0  0  0
 11 12  2  0  0  0  0
 11 13  1  0  0  0  0
 13 22  1  0  0  0  0
 13 23  1  0  0  0  0
 13 14  1  0  0  0  0
 14 24  1  0  0  0  0
 14 25  1  0  0  0  0
 15 26  1  0  0  0  0
 15 27  1  0  0  0  0
 16 17  2  0  0  0  0
 16 28  1  0  0  0  0
 17 18  1  0  0  0  0
 17 29  1  0  0  0  0
 18 30  1  0  0  0  0
M  ZZC   1 c1
M  ZZC   2 c2
M  ZZC   3 c3
M  ZZC   4 c4
M  ZZC   5 o1
M  ZZC   6 n1
M  ZZC   7 c5
M  ZZC   8 c6
M  ZZC   9 o2
M  ZZC  10 n2
M  ZZC  11 c7
M  ZZC  12 o3
M  ZZC  13 c8
M  ZZC  14 c9
M  ZZC  15 c10
M  ZZC  16 c11
M  ZZC  17 c12
M  ZZC  18 c13
M  ZZC  19 h11
M  ZZC  20 h51
M  ZZC  21 h21
M  ZZC  22 h81
M  ZZC  23 h82
M  ZZC  24 h91
M  ZZC  25 h92
M  ZZC  26 h101
M  ZZC  27 h102
M  ZZC  28 h111
M  ZZC  29 h121
M  ZZC  30 h131
M  ZZM   1 37
M  ZZI   1 125
M  ZZM   2 37
M  ZZI   2 124
M  ZZM   3 37
M  ZZI   3 124
M  ZZM   4 3
M  ZZI   4 121
M  ZZM   5 7
M  ZZI   5 81
M  ZZM   6 10
M  ZZI   6 192
M  ZZM   7 1
M  ZZI   7 113
M  ZZM   8 3
M  ZZI   8 121
M  ZZM   9 7
M  ZZI   9 81
M  ZZM  10 10
M  ZZI  10 191
M  ZZM  11 3
M  ZZI  11 121
M  ZZM  12 7
M  ZZI  12 81
M  ZZM  13 1
M  ZZI  13 112
M  ZZM  14 1
M  ZZI  14 112
M  ZZM  15 1
M  ZZI  15 112
M  ZZM  16 37
M  ZZI  16 125
M  ZZM  17 37
M  ZZI  17 125
M  ZZM  18 37
M  ZZI  18 125
M  ZZM  19 5
M  ZZI  19 1
M  ZZM  20 5
M  ZZI  20 1
M  ZZM  21 28
M  ZZI  21 11
M  ZZM  22 5
M  ZZI  22 1
M  ZZM  23 5
M  ZZI  23 1
M  ZZM  24 5
M  ZZI  24 1
M  ZZM  25 5
M  ZZI  25 1
M  ZZM  26 5
M  ZZI  26 1
M  ZZM  27 5
M  ZZI  27 1
M  ZZM  28 5
M  ZZI  28 1
M  ZZM  29 5
M  ZZI  29 1
M  ZZM  30 5
M  ZZI  30 1
M  END
> <IX>
1

> <NAME>
Cereblon_1EJ1_15.pdb

> <Score>
-20.780837

> <Natom>
30

> <Nflex>
1

> <Hbond>
-4.637751

> <Hphob>
-3.577149

> <VwInt>
-21.877518

> <Dsolv>
13.245678

> <SolEl>
5.537623

> <Eintl>
1.729654

> <RecConf>
ND

> <projPath>
Cereblon_maps/

> <NAME_>
Cereblon_1EJ1_15.pdb

$$$$
