Cereblon_6NUQ_17.pdb
  MOLSOFT 04032206283D

 30 32  0  0  1  0  0  0  0  0999 V2000
   76.6675   38.1163   40.6596 C   0  0  0  0  0  0  0  0  0  0  0  0
   75.6502   37.9075   39.7349 C   0  0  0  0  0  0  0  0  0  0  0  0
   74.9658   39.0139   39.2592 C   0  0  0  0  0  0  0  0  0  0  0  0
   75.2892   40.2623   39.7089 C   0  0  0  0  0  0  0  0  0  0  0  0
   74.4115   41.2298   39.0488 C   0  0  0  0  0  0  0  0  0  0  0  0
   74.4230   42.4230   39.3099 O   0  0  0  0  0  0  0  0  0  0  0  0
   73.6342   40.5173   38.1473 N   0  0  0  0  0  0  0  0  0  0  0  0
   72.6013   41.0477   37.2424 C   0  0  1  0  0  0  0  0  0  0  0  0
   71.2749   41.2533   37.9722 C   0  0  0  0  0  0  0  0  0  0  0  0
   70.9170   40.5682   38.9194 O   0  0  0  0  0  0  0  0  0  0  0  0
   70.4353   42.2057   37.4415 N   0  0  0  0  0  0  0  0  0  0  0  0
   70.6478   43.0473   36.3832 C   0  0  0  0  0  0  0  0  0  0  0  0
   69.8409   43.9126   36.0804 O   0  0  0  0  0  0  0  0  0  0  0  0
   71.9107   42.8024   35.5982 C   0  0  0  0  0  0  0  0  0  0  0  0
   73.0282   42.3185   36.5071 C   0  0  0  0  0  0  0  0  0  0  0  0
   73.8595   39.0864   38.2690 C   0  0  0  0  0  0  0  0  0  0  0  0
   76.2969   40.4997   40.6262 C   0  0  0  0  0  0  0  0  0  0  0  0
   76.9886   39.3964   41.1024 C   0  0  0  0  0  0  0  0  0  0  0  0
   77.2260   37.2675   41.0416 H   0  0  0  0  0  0  0  0  0  0  0  0
   75.4070   36.9062   39.3924 H   0  0  0  0  0  0  0  0  0  0  0  0
   72.4177   40.2714   36.4902 H   0  0  0  0  0  0  0  0  0  0  0  0
   69.5603   42.3448   37.9254 H   0  0  0  0  0  0  0  0  0  0  0  0
   71.6964   42.0729   34.8096 H   0  0  0  0  0  0  0  0  0  0  0  0
   72.2036   43.7412   35.1241 H   0  0  0  0  0  0  0  0  0  0  0  0
   73.2772   43.1160   37.2123 H   0  0  0  0  0  0  0  0  0  0  0  0
   73.9318   42.1290   35.9188 H   0  0  0  0  0  0  0  0  0  0  0  0
   74.1479   38.6731   37.2969 H   0  0  0  0  0  0  0  0  0  0  0  0
   72.9515   38.6042   38.6470 H   0  0  0  0  0  0  0  0  0  0  0  0
   76.5470   41.5045   40.9518 H   0  0  0  0  0  0  0  0  0  0  0  0
   77.7882   39.5350   41.8239 H   0  0  0  0  0  0  0  0  0  0  0  0
  1 19  1  0  0  0  0
  1 18  2  0  0  0  0
  1  2  1  0  0  0  0
  2  3  2  0  0  0  0
  2 20  1  0  0  0  0
  3  4  1  0  0  0  0
  3 16  1  0  0  0  0
  4 17  2  0  0  0  0
  4  5  1  0  0  0  0
  5  7  1  0  0  0  0
  5  6  2  0  0  0  0
  7 16  1  0  0  0  0
  8  7  1  0  0  0  0
  8 21  1  0  0  0  0
  8 15  1  0  0  0  0
  8  9  1  0  0  0  0
  9 11  1  0  0  0  0
  9 10  2  0  0  0  0
 11 12  1  0  0  0  0
 11 22  1  0  0  0  0
 12 14  1  0  0  0  0
 12 13  2  0  0  0  0
 14 15  1  0  0  0  0
 14 23  1  0  0  0  0
 14 24  1  0  0  0  0
 15 25  1  0  0  0  0
 15 26  1  0  0  0  0
 16 27  1  0  0  0  0
 16 28  1  0  0  0  0
 17 18  1  0  0  0  0
 17 29  1  0  0  0  0
 18 30  1  0  0  0  0
M  ZZC   1 c1
M  ZZC   2 c2
M  ZZC   3 c3
M  ZZC   4 c4
M  ZZC   5 c5
M  ZZC   6 o1
M  ZZC   7 n1
M  ZZC   8 c6
M  ZZC   9 c7
M  ZZC  10 o2
M  ZZC  11 n2
M  ZZC  12 c8
M  ZZC  13 o3
M  ZZC  14 c9
M  ZZC  15 c10
M  ZZC  16 c11
M  ZZC  17 c12
M  ZZC  18 c13
M  ZZC  19 h11
M  ZZC  20 h21
M  ZZC  21 h61
M  ZZC  22 h01
M  ZZC  23 h91
M  ZZC  24 h92
M  ZZC  25 h101
M  ZZC  26 h102
M  ZZC  27 h111
M  ZZC  28 h112
M  ZZC  29 h121
M  ZZC  30 h131
M  ZZM   1 37
M  ZZI   1 125
M  ZZM   2 37
M  ZZI   2 125
M  ZZM   3 37
M  ZZI   3 124
M  ZZM   4 37
M  ZZI   4 124
M  ZZM   5 3
M  ZZI   5 121
M  ZZM   6 7
M  ZZI   6 81
M  ZZM   7 10
M  ZZI   7 192
M  ZZM   8 1
M  ZZI   8 113
M  ZZM   9 3
M  ZZI   9 121
M  ZZM  10 7
M  ZZI  10 81
M  ZZM  11 10
M  ZZI  11 191
M  ZZM  12 3
M  ZZI  12 121
M  ZZM  13 7
M  ZZI  13 81
M  ZZM  14 1
M  ZZI  14 112
M  ZZM  15 1
M  ZZI  15 112
M  ZZM  16 1
M  ZZI  16 112
M  ZZM  17 37
M  ZZI  17 125
M  ZZM  18 37
M  ZZI  18 125
M  ZZM  19 5
M  ZZI  19 1
M  ZZM  20 5
M  ZZI  20 1
M  ZZM  21 5
M  ZZI  21 1
M  ZZM  22 28
M  ZZI  22 11
M  ZZM  23 5
M  ZZI  23 1
M  ZZM  24 5
M  ZZI  24 1
M  ZZM  25 5
M  ZZI  25 1
M  ZZM  26 5
M  ZZI  26 1
M  ZZM  27 5
M  ZZI  27 1
M  ZZM  28 5
M  ZZI  28 1
M  ZZM  29 5
M  ZZI  29 1
M  ZZM  30 5
M  ZZI  30 1
M  END
> <IX>
1

> <NAME>
Cereblon_6NUQ_17.pdb

> <Score>
-20.820965

> <Natom>
30

> <Nflex>
1

> <Hbond>
-4.68609

> <Hphob>
-3.587473

> <VwInt>
-21.994101

> <Dsolv>
13.214522

> <SolEl>
5.858975

> <Eintl>
1.757893

> <RecConf>
ND

> <projPath>
Cereblon_maps/

> <NAME_>
Cereblon_6NUQ_17.pdb

$$$$
