Cereblon_5EDU_3.pdb
  MOLSOFT 04032206243D

 31 33  0  0  1  0  0  0  0  0999 V2000
   69.8648   40.5218   38.0989 N   0  0  0  0  0  0  0  0  0  0  0  0
   70.7484   41.3701   37.4101 C   0  0  0  0  0  0  0  0  0  0  0  0
   72.1199   41.3557   37.6310 C   0  0  0  0  0  0  0  0  0  0  0  0
   72.9189   40.5449   38.5530 C   0  0  0  0  0  0  0  0  0  0  0  0
   72.4373   39.7523   39.3500 O   0  0  0  0  0  0  0  0  0  0  0  0
   74.2406   40.8869   38.3315 N   0  0  0  0  0  0  0  0  0  0  0  0
   74.3340   41.8876   37.3862 C   0  0  0  0  0  0  0  0  0  0  0  0
   75.3332   42.4426   36.9493 O   0  0  0  0  0  0  0  0  0  0  0  0
   72.9677   42.1849   36.9614 C   0  0  0  0  0  0  0  0  0  0  0  0
   72.5090   43.1367   36.0722 C   0  0  0  0  0  0  0  0  0  0  0  0
   71.1388   43.2167   35.8735 C   0  0  0  0  0  0  0  0  0  0  0  0
   70.2747   42.3500   36.5388 C   0  0  0  0  0  0  0  0  0  0  0  0
   75.4235   40.3884   39.0511 C   0  0  1  0  0  0  0  0  0  0  0  0
   75.7161   41.3102   40.2145 C   0  0  0  0  0  0  0  0  0  0  0  0
   75.2744   42.4463   40.2567 O   0  0  0  0  0  0  0  0  0  0  0  0
   76.5649   40.8095   41.1755 N   0  0  0  0  0  0  0  0  0  0  0  0
   77.0718   39.5367   41.2767 C   0  0  0  0  0  0  0  0  0  0  0  0
   77.8454   39.2195   42.1652 O   0  0  0  0  0  0  0  0  0  0  0  0
   76.6575   38.5641   40.1994 C   0  0  0  0  0  0  0  0  0  0  0  0
   75.3309   38.9576   39.5682 C   0  0  0  0  0  0  0  0  0  0  0  0
   68.9122   40.4117   37.7403 H   0  0  0  0  0  0  0  0  0  0  0  0
   70.2693   39.7829   38.6796 H   0  0  0  0  0  0  0  0  0  0  0  0
   73.1850   43.8161   35.5761 H   0  0  0  0  0  0  0  0  0  0  0  0
   70.7367   43.9680   35.1997 H   0  0  0  0  0  0  0  0  0  0  0  0
   69.2073   42.4542   36.3760 H   0  0  0  0  0  0  0  0  0  0  0  0
   76.2859   40.4910   38.3863 H   0  0  0  0  0  0  0  0  0  0  0  0
   76.8357   41.4470   41.9137 H   0  0  0  0  0  0  0  0  0  0  0  0
   77.4586   38.5319   39.4554 H   0  0  0  0  0  0  0  0  0  0  0  0
   76.5714   37.5678   40.6445 H   0  0  0  0  0  0  0  0  0  0  0  0
   75.0787   38.2683   38.7564 H   0  0  0  0  0  0  0  0  0  0  0  0
   74.5429   38.8667   40.3230 H   0  0  0  0  0  0  0  0  0  0  0  0
  1  2  1  0  0  0  0
  1 21  1  0  0  0  0
  1 22  1  0  0  0  0
  2  3  1  0  0  0  0
  2 12  2  0  0  0  0
  3  9  2  0  0  0  0
  3  4  1  0  0  0  0
  4  5  2  0  0  0  0
  4  6  1  0  0  0  0
  6  7  1  0  0  0  0
 13  6  1  0  0  0  0
  7  8  2  0  0  0  0
  7  9  1  0  0  0  0
  9 10  1  0  0  0  0
 10 23  1  0  0  0  0
 10 11  2  0  0  0  0
 11 12  1  0  0  0  0
 11 24  1  0  0  0  0
 12 25  1  0  0  0  0
 13 26  1  0  0  0  0
 13 14  1  0  0  0  0
 13 20  1  0  0  0  0
 14 15  2  0  0  0  0
 14 16  1  0  0  0  0
 16 27  1  0  0  0  0
 16 17  1  0  0  0  0
 17 18  2  0  0  0  0
 17 19  1  0  0  0  0
 19 28  1  0  0  0  0
 19 29  1  0  0  0  0
 19 20  1  0  0  0  0
 20 30  1  0  0  0  0
 20 31  1  0  0  0  0
M  ZZC   1 n1
M  ZZC   2 c1
M  ZZC   3 c2
M  ZZC   4 c3
M  ZZC   5 o1
M  ZZC   6 n2
M  ZZC   7 c4
M  ZZC   8 o2
M  ZZC   9 c5
M  ZZC  10 c6
M  ZZC  11 c7
M  ZZC  12 c8
M  ZZC  13 c9
M  ZZC  14 c10
M  ZZC  15 o3
M  ZZC  16 n3
M  ZZC  17 c11
M  ZZC  18 o4
M  ZZC  19 c12
M  ZZC  20 c13
M  ZZC  21 h11
M  ZZC  22 h12
M  ZZC  23 h61
M  ZZC  24 h71
M  ZZC  25 h81
M  ZZC  26 h91
M  ZZC  27 h31
M  ZZC  28 h121
M  ZZC  29 h122
M  ZZC  30 h131
M  ZZC  31 h132
M  ZZM   1 40
M  ZZI   1 224
M  ZZM   2 37
M  ZZI   2 124
M  ZZM   3 37
M  ZZI   3 124
M  ZZM   4 3
M  ZZI   4 121
M  ZZM   5 7
M  ZZI   5 81
M  ZZM   6 10
M  ZZI   6 192
M  ZZM   7 3
M  ZZI   7 121
M  ZZM   8 7
M  ZZI   8 81
M  ZZM   9 37
M  ZZI   9 124
M  ZZM  10 37
M  ZZI  10 125
M  ZZM  11 37
M  ZZI  11 125
M  ZZM  12 37
M  ZZI  12 125
M  ZZM  13 1
M  ZZI  13 113
M  ZZM  14 3
M  ZZI  14 121
M  ZZM  15 7
M  ZZI  15 81
M  ZZM  16 10
M  ZZI  16 191
M  ZZM  17 3
M  ZZI  17 121
M  ZZM  18 7
M  ZZI  18 81
M  ZZM  19 1
M  ZZI  19 112
M  ZZM  20 1
M  ZZI  20 112
M  ZZM  21 28
M  ZZI  21 11
M  ZZM  22 28
M  ZZI  22 11
M  ZZM  23 5
M  ZZI  23 1
M  ZZM  24 5
M  ZZI  24 1
M  ZZM  25 5
M  ZZI  25 1
M  ZZM  26 5
M  ZZI  26 1
M  ZZM  27 28
M  ZZI  27 11
M  ZZM  28 5
M  ZZI  28 1
M  ZZM  29 5
M  ZZI  29 1
M  ZZM  30 5
M  ZZI  30 1
M  ZZM  31 5
M  ZZI  31 1
M  END
> <IX>
1

> <NAME>
Cereblon_5EDU_3.pdb

> <Score>
-9.066776

> <Natom>
31

> <Nflex>
1

> <Hbond>
-3.698099

> <Hphob>
-3.58076

> <VwInt>
-17.924515

> <Dsolv>
15.865849

> <SolEl>
10.300388

> <Eintl>
2.192327

> <RecConf>
ND

> <projPath>
Cereblon_maps/

> <NAME_>
Cereblon_5EDU_3.pdb

$$$$
