Cereblon_5LLI_12.pdb
  MOLSOFT 04032206263D

 31 33  0  0  1  0  0  0  0  0999 V2000
   77.9938   40.6352   42.7178 N   0  0  0  0  0  0  0  0  0  0  0  0
   78.1431   41.6621   41.7704 C   0  0  0  0  0  0  0  0  0  0  0  0
   77.3013   41.7876   40.6741 C   0  0  0  0  0  0  0  0  0  0  0  0
   76.2288   40.9090   40.2142 C   0  0  0  0  0  0  0  0  0  0  0  0
   75.9831   39.8137   40.7000 O   0  0  0  0  0  0  0  0  0  0  0  0
   75.6119   41.5527   39.1575 N   0  0  0  0  0  0  0  0  0  0  0  0
   76.3443   42.6625   38.7870 C   0  0  0  0  0  0  0  0  0  0  0  0
   76.2451   43.3733   37.7983 O   0  0  0  0  0  0  0  0  0  0  0  0
   77.3821   42.8314   39.8038 C   0  0  0  0  0  0  0  0  0  0  0  0
   78.3243   43.8334   39.9471 C   0  0  0  0  0  0  0  0  0  0  0  0
   79.1739   43.7451   41.0425 C   0  0  0  0  0  0  0  0  0  0  0  0
   79.0666   42.6901   41.9508 C   0  0  0  0  0  0  0  0  0  0  0  0
   74.3650   41.0486   38.5539 C   0  0  1  0  0  0  0  0  0  0  0  0
   73.2249   41.3219   39.5254 C   0  0  0  0  0  0  0  0  0  0  0  0
   73.3989   41.6046   40.6983 O   0  0  0  0  0  0  0  0  0  0  0  0
   71.9565   41.1774   39.0231 N   0  0  0  0  0  0  0  0  0  0  0  0
   71.5826   40.9434   37.7253 C   0  0  0  0  0  0  0  0  0  0  0  0
   70.4214   40.6995   37.4353 O   0  0  0  0  0  0  0  0  0  0  0  0
   72.7016   40.9493   36.7043 C   0  0  0  0  0  0  0  0  0  0  0  0
   73.9397   41.6700   37.2232 C   0  0  0  0  0  0  0  0  0  0  0  0
   78.7740   40.4221   43.3378 H   0  0  0  0  0  0  0  0  0  0  0  0
   77.3611   39.8691   42.4834 H   0  0  0  0  0  0  0  0  0  0  0  0
   78.3865   44.6595   39.2472 H   0  0  0  0  0  0  0  0  0  0  0  0
   79.9156   44.5203   41.2080 H   0  0  0  0  0  0  0  0  0  0  0  0
   79.7221   42.6730   42.8159 H   0  0  0  0  0  0  0  0  0  0  0  0
   74.4600   39.9598   38.4677 H   0  0  0  0  0  0  0  0  0  0  0  0
   71.2034   41.2724   39.6919 H   0  0  0  0  0  0  0  0  0  0  0  0
   72.9370   39.9102   36.4514 H   0  0  0  0  0  0  0  0  0  0  0  0
   72.3410   41.4453   35.7974 H   0  0  0  0  0  0  0  0  0  0  0  0
   74.7361   41.6147   36.4798 H   0  0  0  0  0  0  0  0  0  0  0  0
   73.7098   42.7344   37.3520 H   0  0  0  0  0  0  0  0  0  0  0  0
  1  2  1  0  0  0  0
  1 21  1  0  0  0  0
  1 22  1  0  0  0  0
  2  3  1  0  0  0  0
  2 12  2  0  0  0  0
  3  9  2  0  0  0  0
  3  4  1  0  0  0  0
  4  5  2  0  0  0  0
  4  6  1  0  0  0  0
  6  7  1  0  0  0  0
 13  6  1  0  0  0  0
  7  8  2  0  0  0  0
  7  9  1  0  0  0  0
  9 10  1  0  0  0  0
 10 23  1  0  0  0  0
 10 11  2  0  0  0  0
 11 12  1  0  0  0  0
 11 24  1  0  0  0  0
 12 25  1  0  0  0  0
 13 26  1  0  0  0  0
 13 14  1  0  0  0  0
 13 20  1  0  0  0  0
 14 15  2  0  0  0  0
 14 16  1  0  0  0  0
 16 27  1  0  0  0  0
 16 17  1  0  0  0  0
 17 18  2  0  0  0  0
 17 19  1  0  0  0  0
 19 28  1  0  0  0  0
 19 29  1  0  0  0  0
 19 20  1  0  0  0  0
 20 30  1  0  0  0  0
 20 31  1  0  0  0  0
M  ZZC   1 n1
M  ZZC   2 c1
M  ZZC   3 c2
M  ZZC   4 c3
M  ZZC   5 o1
M  ZZC   6 n2
M  ZZC   7 c4
M  ZZC   8 o2
M  ZZC   9 c5
M  ZZC  10 c6
M  ZZC  11 c7
M  ZZC  12 c8
M  ZZC  13 c9
M  ZZC  14 c10
M  ZZC  15 o3
M  ZZC  16 n3
M  ZZC  17 c11
M  ZZC  18 o4
M  ZZC  19 c12
M  ZZC  20 c13
M  ZZC  21 h11
M  ZZC  22 h12
M  ZZC  23 h61
M  ZZC  24 h71
M  ZZC  25 h81
M  ZZC  26 h91
M  ZZC  27 h31
M  ZZC  28 h121
M  ZZC  29 h122
M  ZZC  30 h131
M  ZZC  31 h132
M  ZZM   1 40
M  ZZI   1 224
M  ZZM   2 37
M  ZZI   2 124
M  ZZM   3 37
M  ZZI   3 124
M  ZZM   4 3
M  ZZI   4 121
M  ZZM   5 7
M  ZZI   5 81
M  ZZM   6 10
M  ZZI   6 192
M  ZZM   7 3
M  ZZI   7 121
M  ZZM   8 7
M  ZZI   8 81
M  ZZM   9 37
M  ZZI   9 124
M  ZZM  10 37
M  ZZI  10 125
M  ZZM  11 37
M  ZZI  11 125
M  ZZM  12 37
M  ZZI  12 125
M  ZZM  13 1
M  ZZI  13 113
M  ZZM  14 3
M  ZZI  14 121
M  ZZM  15 7
M  ZZI  15 81
M  ZZM  16 10
M  ZZI  16 191
M  ZZM  17 3
M  ZZI  17 121
M  ZZM  18 7
M  ZZI  18 81
M  ZZM  19 1
M  ZZI  19 112
M  ZZM  20 1
M  ZZI  20 112
M  ZZM  21 28
M  ZZI  21 11
M  ZZM  22 28
M  ZZI  22 11
M  ZZM  23 5
M  ZZI  23 1
M  ZZM  24 5
M  ZZI  24 1
M  ZZM  25 5
M  ZZI  25 1
M  ZZM  26 5
M  ZZI  26 1
M  ZZM  27 28
M  ZZI  27 11
M  ZZM  28 5
M  ZZI  28 1
M  ZZM  29 5
M  ZZI  29 1
M  ZZM  30 5
M  ZZI  30 1
M  ZZM  31 5
M  ZZI  31 1
M  END
> <IX>
1

> <NAME>
Cereblon_5LLI_12.pdb

> <Score>
-14.706928

> <Natom>
31

> <Nflex>
1

> <Hbond>
-2.844333

> <Hphob>
-3.724132

> <VwInt>
-26.962124

> <Dsolv>
17.212156

> <SolEl>
7.616898

> <Eintl>
5.683761

> <RecConf>
ND

> <projPath>
Cereblon_maps/

> <NAME_>
Cereblon_5LLI_12.pdb

$$$$
