Cereblon_5VBP_18.pdb
  MOLSOFT 04032206273D

 31 33  0  0  1  0  0  0  0  0999 V2000
   77.9931   40.6349   42.7165 N   0  0  0  0  0  0  0  0  0  0  0  0
   78.1423   41.6619   41.7690 C   0  0  0  0  0  0  0  0  0  0  0  0
   77.3005   41.7872   40.6727 C   0  0  0  0  0  0  0  0  0  0  0  0
   76.2280   40.9086   40.2128 C   0  0  0  0  0  0  0  0  0  0  0  0
   75.9826   39.8134   40.6989 O   0  0  0  0  0  0  0  0  0  0  0  0
   75.6106   41.5521   39.1563 N   0  0  0  0  0  0  0  0  0  0  0  0
   76.3430   42.6618   38.7854 C   0  0  0  0  0  0  0  0  0  0  0  0
   76.2439   43.3720   37.7963 O   0  0  0  0  0  0  0  0  0  0  0  0
   77.3809   42.8311   39.8023 C   0  0  0  0  0  0  0  0  0  0  0  0
   78.3232   43.8330   39.9452 C   0  0  0  0  0  0  0  0  0  0  0  0
   79.1728   43.7449   41.0407 C   0  0  0  0  0  0  0  0  0  0  0  0
   79.0654   42.6901   41.9493 C   0  0  0  0  0  0  0  0  0  0  0  0
   74.3634   41.0479   38.5534 C   0  0  1  0  0  0  0  0  0  0  0  0
   73.2239   41.3221   39.5254 C   0  0  0  0  0  0  0  0  0  0  0  0
   73.3987   41.6051   40.6982 O   0  0  0  0  0  0  0  0  0  0  0  0
   71.9552   41.1780   39.0239 N   0  0  0  0  0  0  0  0  0  0  0  0
   71.5806   40.9430   37.7265 C   0  0  0  0  0  0  0  0  0  0  0  0
   70.4192   40.6985   37.4375 O   0  0  0  0  0  0  0  0  0  0  0  0
   72.6989   40.9483   36.7048 C   0  0  0  0  0  0  0  0  0  0  0  0
   73.9375   41.6689   37.2227 C   0  0  0  0  0  0  0  0  0  0  0  0
   78.7737   40.4222   43.3362 H   0  0  0  0  0  0  0  0  0  0  0  0
   77.3609   39.8686   42.4817 H   0  0  0  0  0  0  0  0  0  0  0  0
   78.3854   44.6588   39.2450 H   0  0  0  0  0  0  0  0  0  0  0  0
   79.9146   44.5200   41.2062 H   0  0  0  0  0  0  0  0  0  0  0  0
   79.7206   42.6732   42.8146 H   0  0  0  0  0  0  0  0  0  0  0  0
   74.4577   39.9589   38.4676 H   0  0  0  0  0  0  0  0  0  0  0  0
   71.2027   41.2733   39.6933 H   0  0  0  0  0  0  0  0  0  0  0  0
   72.9343   39.9090   36.4524 H   0  0  0  0  0  0  0  0  0  0  0  0
   72.3382   41.4437   35.7975 H   0  0  0  0  0  0  0  0  0  0  0  0
   74.7337   41.6131   36.4790 H   0  0  0  0  0  0  0  0  0  0  0  0
   73.7085   42.7334   37.3512 H   0  0  0  0  0  0  0  0  0  0  0  0
  1  2  1  0  0  0  0
  1 21  1  0  0  0  0
  1 22  1  0  0  0  0
  2  3  1  0  0  0  0
  2 12  2  0  0  0  0
  3  9  2  0  0  0  0
  3  4  1  0  0  0  0
  4  5  2  0  0  0  0
  4  6  1  0  0  0  0
  6  7  1  0  0  0  0
 13  6  1  0  0  0  0
  7  8  2  0  0  0  0
  7  9  1  0  0  0  0
  9 10  1  0  0  0  0
 10 23  1  0  0  0  0
 10 11  2  0  0  0  0
 11 12  1  0  0  0  0
 11 24  1  0  0  0  0
 12 25  1  0  0  0  0
 13 26  1  0  0  0  0
 13 14  1  0  0  0  0
 13 20  1  0  0  0  0
 14 15  2  0  0  0  0
 14 16  1  0  0  0  0
 16 27  1  0  0  0  0
 16 17  1  0  0  0  0
 17 18  2  0  0  0  0
 17 19  1  0  0  0  0
 19 28  1  0  0  0  0
 19 29  1  0  0  0  0
 19 20  1  0  0  0  0
 20 30  1  0  0  0  0
 20 31  1  0  0  0  0
M  ZZC   1 n1
M  ZZC   2 c1
M  ZZC   3 c2
M  ZZC   4 c3
M  ZZC   5 o1
M  ZZC   6 n2
M  ZZC   7 c4
M  ZZC   8 o2
M  ZZC   9 c5
M  ZZC  10 c6
M  ZZC  11 c7
M  ZZC  12 c8
M  ZZC  13 c9
M  ZZC  14 c10
M  ZZC  15 o3
M  ZZC  16 n3
M  ZZC  17 c11
M  ZZC  18 o4
M  ZZC  19 c12
M  ZZC  20 c13
M  ZZC  21 h11
M  ZZC  22 h12
M  ZZC  23 h61
M  ZZC  24 h71
M  ZZC  25 h81
M  ZZC  26 h91
M  ZZC  27 h31
M  ZZC  28 h121
M  ZZC  29 h122
M  ZZC  30 h131
M  ZZC  31 h132
M  ZZM   1 40
M  ZZI   1 224
M  ZZM   2 37
M  ZZI   2 124
M  ZZM   3 37
M  ZZI   3 124
M  ZZM   4 3
M  ZZI   4 121
M  ZZM   5 7
M  ZZI   5 81
M  ZZM   6 10
M  ZZI   6 192
M  ZZM   7 3
M  ZZI   7 121
M  ZZM   8 7
M  ZZI   8 81
M  ZZM   9 37
M  ZZI   9 124
M  ZZM  10 37
M  ZZI  10 125
M  ZZM  11 37
M  ZZI  11 125
M  ZZM  12 37
M  ZZI  12 125
M  ZZM  13 1
M  ZZI  13 113
M  ZZM  14 3
M  ZZI  14 121
M  ZZM  15 7
M  ZZI  15 81
M  ZZM  16 10
M  ZZI  16 191
M  ZZM  17 3
M  ZZI  17 121
M  ZZM  18 7
M  ZZI  18 81
M  ZZM  19 1
M  ZZI  19 112
M  ZZM  20 1
M  ZZI  20 112
M  ZZM  21 28
M  ZZI  21 11
M  ZZM  22 28
M  ZZI  22 11
M  ZZM  23 5
M  ZZI  23 1
M  ZZM  24 5
M  ZZI  24 1
M  ZZM  25 5
M  ZZI  25 1
M  ZZM  26 5
M  ZZI  26 1
M  ZZM  27 28
M  ZZI  27 11
M  ZZM  28 5
M  ZZI  28 1
M  ZZM  29 5
M  ZZI  29 1
M  ZZM  30 5
M  ZZI  30 1
M  ZZM  31 5
M  ZZI  31 1
M  END
> <IX>
1

> <NAME>
Cereblon_5VBP_18.pdb

> <Score>
-15.111603

> <Natom>
31

> <Nflex>
1

> <Hbond>
-2.894995

> <Hphob>
-3.713863

> <VwInt>
-27.001293

> <Dsolv>
17.150603

> <SolEl>
7.229492

> <Eintl>
5.779831

> <RecConf>
ND

> <projPath>
Cereblon_maps/

> <NAME_>
Cereblon_5VBP_18.pdb

$$$$
