Cereblon_5WN8_5.pdb
  MOLSOFT 04032206283D

 29 31  0  0  1  0  0  0  0  0999 V2000
   78.9991   42.4894   42.6724 C   0  0  0  0  0  0  0  0  0  0  0  0
   78.1811   42.1949   41.5961 C   0  0  0  0  0  0  0  0  0  0  0  0
   77.2651   41.0762   41.4095 C   0  0  0  0  0  0  0  0  0  0  0  0
   77.0837   40.2153   42.2569 O   0  0  0  0  0  0  0  0  0  0  0  0
   76.7248   41.2183   40.1445 N   0  0  0  0  0  0  0  0  0  0  0  0
   77.2213   42.3453   39.5213 C   0  0  0  0  0  0  0  0  0  0  0  0
   76.9875   42.7640   38.3953 O   0  0  0  0  0  0  0  0  0  0  0  0
   78.1543   42.9580   40.4676 C   0  0  0  0  0  0  0  0  0  0  0  0
   78.9522   44.0750   40.3267 C   0  0  0  0  0  0  0  0  0  0  0  0
   79.7945   44.3845   41.3887 C   0  0  0  0  0  0  0  0  0  0  0  0
   79.8192   43.6052   42.5460 C   0  0  0  0  0  0  0  0  0  0  0  0
   75.7164   40.3645   39.5112 C   0  0  2  0  0  0  0  0  0  0  0  0
   74.3372   40.9340   39.8018 C   0  0  0  0  0  0  0  0  0  0  0  0
   74.1506   42.1206   40.0160 O   0  0  0  0  0  0  0  0  0  0  0  0
   73.2859   40.0529   39.7274 N   0  0  0  0  0  0  0  0  0  0  0  0
   73.3229   38.7073   39.4546 C   0  0  0  0  0  0  0  0  0  0  0  0
   72.3072   38.0345   39.3981 O   0  0  0  0  0  0  0  0  0  0  0  0
   74.6867   38.1256   39.1759 C   0  0  0  0  0  0  0  0  0  0  0  0
   75.7705   38.8936   39.9123 C   0  0  0  0  0  0  0  0  0  0  0  0
   79.0078   41.8741   43.5678 H   0  0  0  0  0  0  0  0  0  0  0  0
   78.9235   44.6751   39.4250 H   0  0  0  0  0  0  0  0  0  0  0  0
   80.4438   45.2495   41.3188 H   0  0  0  0  0  0  0  0  0  0  0  0
   80.4868   43.8719   43.3603 H   0  0  0  0  0  0  0  0  0  0  0  0
   75.8543   40.4520   38.4315 H   0  0  0  0  0  0  0  0  0  0  0  0
   72.3681   40.4477   39.8910 H   0  0  0  0  0  0  0  0  0  0  0  0
   74.6925   37.0798   39.4989 H   0  0  0  0  0  0  0  0  0  0  0  0
   74.8473   38.1489   38.0936 H   0  0  0  0  0  0  0  0  0  0  0  0
   76.7551   38.4715   39.6868 H   0  0  0  0  0  0  0  0  0  0  0  0
   75.6081   38.7734   40.9872 H   0  0  0  0  0  0  0  0  0  0  0  0
  1 20  1  0  0  0  0
  1  2  1  0  0  0  0
  1 11  2  0  0  0  0
  2  3  1  0  0  0  0
  2  8  2  0  0  0  0
  3  4  2  0  0  0  0
  3  5  1  0  0  0  0
  5  6  1  0  0  0  0
 12  5  1  0  0  0  0
  6  7  2  0  0  0  0
  6  8  1  0  0  0  0
  8  9  1  0  0  0  0
  9 21  1  0  0  0  0
  9 10  2  0  0  0  0
 10 22  1  0  0  0  0
 10 11  1  0  0  0  0
 11 23  1  0  0  0  0
 12 24  1  0  0  0  0
 12 13  1  0  0  0  0
 12 19  1  0  0  0  0
 13 14  2  0  0  0  0
 13 15  1  0  0  0  0
 15 25  1  0  0  0  0
 15 16  1  0  0  0  0
 16 17  2  0  0  0  0
 16 18  1  0  0  0  0
 18 26  1  0  0  0  0
 18 27  1  0  0  0  0
 18 19  1  0  0  0  0
 19 28  1  0  0  0  0
 19 29  1  0  0  0  0
M  ZZC   1 c1
M  ZZC   2 c2
M  ZZC   3 c3
M  ZZC   4 o1
M  ZZC   5 n1
M  ZZC   6 c4
M  ZZC   7 o2
M  ZZC   8 c5
M  ZZC   9 c6
M  ZZC  10 c7
M  ZZC  11 c8
M  ZZC  12 c9
M  ZZC  13 c10
M  ZZC  14 o3
M  ZZC  15 n2
M  ZZC  16 c11
M  ZZC  17 o4
M  ZZC  18 c12
M  ZZC  19 c13
M  ZZC  20 h11
M  ZZC  21 h61
M  ZZC  22 h71
M  ZZC  23 h81
M  ZZC  24 h91
M  ZZC  25 h21
M  ZZC  26 h121
M  ZZC  27 h122
M  ZZC  28 h131
M  ZZC  29 h132
M  ZZM   1 37
M  ZZI   1 125
M  ZZM   2 37
M  ZZI   2 124
M  ZZM   3 3
M  ZZI   3 121
M  ZZM   4 7
M  ZZI   4 81
M  ZZM   5 10
M  ZZI   5 192
M  ZZM   6 3
M  ZZI   6 121
M  ZZM   7 7
M  ZZI   7 81
M  ZZM   8 37
M  ZZI   8 124
M  ZZM   9 37
M  ZZI   9 125
M  ZZM  10 37
M  ZZI  10 125
M  ZZM  11 37
M  ZZI  11 125
M  ZZM  12 1
M  ZZI  12 113
M  ZZM  13 3
M  ZZI  13 121
M  ZZM  14 7
M  ZZI  14 81
M  ZZM  15 10
M  ZZI  15 191
M  ZZM  16 3
M  ZZI  16 121
M  ZZM  17 7
M  ZZI  17 81
M  ZZM  18 1
M  ZZI  18 112
M  ZZM  19 1
M  ZZI  19 112
M  ZZM  20 5
M  ZZI  20 1
M  ZZM  21 5
M  ZZI  21 1
M  ZZM  22 5
M  ZZI  22 1
M  ZZM  23 5
M  ZZI  23 1
M  ZZM  24 5
M  ZZI  24 1
M  ZZM  25 28
M  ZZI  25 11
M  ZZM  26 5
M  ZZI  26 1
M  ZZM  27 5
M  ZZI  27 1
M  ZZM  28 5
M  ZZI  28 1
M  ZZM  29 5
M  ZZI  29 1
M  END
> <IX>
1

> <NAME>
Cereblon_5WN8_5.pdb

> <Score>
-19.498819

> <Natom>
29

> <Nflex>
1

> <Hbond>
-3.374083

> <Hphob>
-3.549539

> <VwInt>
-22.678836

> <Dsolv>
12.042318

> <SolEl>
5.42709

> <Eintl>
1.468367

> <RecConf>
ND

> <projPath>
Cereblon_maps/

> <NAME_>
Cereblon_5WN8_5.pdb

$$$$
