Cereblon_5V9O_2.pdb
  MOLSOFT 04032206273D

 31 33  0  0  1  0  0  0  0  0999 V2000
   78.8136   41.6770   43.8179 N   0  0  0  0  0  0  0  0  0  0  0  0
   78.9071   42.4221   42.6318 C   0  0  0  0  0  0  0  0  0  0  0  0
   78.0993   42.1582   41.5386 C   0  0  0  0  0  0  0  0  0  0  0  0
   77.1784   41.0476   41.3314 C   0  0  0  0  0  0  0  0  0  0  0  0
   76.9981   40.1643   42.1566 O   0  0  0  0  0  0  0  0  0  0  0  0
   76.6441   41.2117   40.0688 N   0  0  0  0  0  0  0  0  0  0  0  0
   77.1655   42.3322   39.4547 C   0  0  0  0  0  0  0  0  0  0  0  0
   76.9529   42.7545   38.3255 O   0  0  0  0  0  0  0  0  0  0  0  0
   78.0969   42.9274   40.4145 C   0  0  0  0  0  0  0  0  0  0  0  0
   78.9091   44.0363   40.2936 C   0  0  0  0  0  0  0  0  0  0  0  0
   79.7255   44.3358   41.3783 C   0  0  0  0  0  0  0  0  0  0  0  0
   79.7125   43.5527   42.5341 C   0  0  0  0  0  0  0  0  0  0  0  0
   75.6251   40.3749   39.4315 C   0  0  2  0  0  0  0  0  0  0  0  0
   74.2536   40.9538   39.7347 C   0  0  0  0  0  0  0  0  0  0  0  0
   74.0831   42.1339   39.9918 O   0  0  0  0  0  0  0  0  0  0  0  0
   73.1929   40.0885   39.6206 N   0  0  0  0  0  0  0  0  0  0  0  0
   73.2175   38.7501   39.3113 C   0  0  0  0  0  0  0  0  0  0  0  0
   72.1926   38.0968   39.2052 O   0  0  0  0  0  0  0  0  0  0  0  0
   74.5803   38.1507   39.0581 C   0  0  0  0  0  0  0  0  0  0  0  0
   75.6578   38.9004   39.8216 C   0  0  0  0  0  0  0  0  0  0  0  0
   79.5541   41.7596   44.5110 H   0  0  0  0  0  0  0  0  0  0  0  0
   78.3234   40.7822   43.7763 H   0  0  0  0  0  0  0  0  0  0  0  0
   78.9015   44.6437   39.3962 H   0  0  0  0  0  0  0  0  0  0  0  0
   80.3740   45.2038   41.3338 H   0  0  0  0  0  0  0  0  0  0  0  0
   80.3438   43.8343   43.3714 H   0  0  0  0  0  0  0  0  0  0  0  0
   75.7609   40.4741   38.3533 H   0  0  0  0  0  0  0  0  0  0  0  0
   72.2778   40.4908   39.7817 H   0  0  0  0  0  0  0  0  0  0  0  0
   74.5651   37.1029   39.3743 H   0  0  0  0  0  0  0  0  0  0  0  0
   74.7684   38.1777   37.9803 H   0  0  0  0  0  0  0  0  0  0  0  0
   75.4721   38.7733   40.8921 H   0  0  0  0  0  0  0  0  0  0  0  0
   76.6423   38.4684   39.6154 H   0  0  0  0  0  0  0  0  0  0  0  0
  1  2  1  0  0  0  0
  1 21  1  0  0  0  0
  1 22  1  0  0  0  0
  2  3  1  0  0  0  0
  2 12  2  0  0  0  0
  3  9  2  0  0  0  0
  3  4  1  0  0  0  0
  4  5  2  0  0  0  0
  4  6  1  0  0  0  0
  6  7  1  0  0  0  0
 13  6  1  0  0  0  0
  7  8  2  0  0  0  0
  7  9  1  0  0  0  0
  9 10  1  0  0  0  0
 10 23  1  0  0  0  0
 10 11  2  0  0  0  0
 11 12  1  0  0  0  0
 11 24  1  0  0  0  0
 12 25  1  0  0  0  0
 13 26  1  0  0  0  0
 13 14  1  0  0  0  0
 13 20  1  0  0  0  0
 14 15  2  0  0  0  0
 14 16  1  0  0  0  0
 16 27  1  0  0  0  0
 16 17  1  0  0  0  0
 17 18  2  0  0  0  0
 17 19  1  0  0  0  0
 19 28  1  0  0  0  0
 19 29  1  0  0  0  0
 19 20  1  0  0  0  0
 20 30  1  0  0  0  0
 20 31  1  0  0  0  0
M  ZZC   1 n1
M  ZZC   2 c1
M  ZZC   3 c2
M  ZZC   4 c3
M  ZZC   5 o1
M  ZZC   6 n2
M  ZZC   7 c4
M  ZZC   8 o2
M  ZZC   9 c5
M  ZZC  10 c6
M  ZZC  11 c7
M  ZZC  12 c8
M  ZZC  13 c9
M  ZZC  14 c10
M  ZZC  15 o3
M  ZZC  16 n3
M  ZZC  17 c11
M  ZZC  18 o4
M  ZZC  19 c12
M  ZZC  20 c13
M  ZZC  21 h11
M  ZZC  22 h12
M  ZZC  23 h61
M  ZZC  24 h71
M  ZZC  25 h81
M  ZZC  26 h91
M  ZZC  27 h31
M  ZZC  28 h121
M  ZZC  29 h122
M  ZZC  30 h131
M  ZZC  31 h132
M  ZZM   1 40
M  ZZI   1 224
M  ZZM   2 37
M  ZZI   2 124
M  ZZM   3 37
M  ZZI   3 124
M  ZZM   4 3
M  ZZI   4 121
M  ZZM   5 7
M  ZZI   5 81
M  ZZM   6 10
M  ZZI   6 192
M  ZZM   7 3
M  ZZI   7 121
M  ZZM   8 7
M  ZZI   8 81
M  ZZM   9 37
M  ZZI   9 124
M  ZZM  10 37
M  ZZI  10 125
M  ZZM  11 37
M  ZZI  11 125
M  ZZM  12 37
M  ZZI  12 125
M  ZZM  13 1
M  ZZI  13 113
M  ZZM  14 3
M  ZZI  14 121
M  ZZM  15 7
M  ZZI  15 81
M  ZZM  16 10
M  ZZI  16 191
M  ZZM  17 3
M  ZZI  17 121
M  ZZM  18 7
M  ZZI  18 81
M  ZZM  19 1
M  ZZI  19 112
M  ZZM  20 1
M  ZZI  20 112
M  ZZM  21 28
M  ZZI  21 11
M  ZZM  22 28
M  ZZI  22 11
M  ZZM  23 5
M  ZZI  23 1
M  ZZM  24 5
M  ZZI  24 1
M  ZZM  25 5
M  ZZI  25 1
M  ZZM  26 5
M  ZZI  26 1
M  ZZM  27 28
M  ZZI  27 11
M  ZZM  28 5
M  ZZI  28 1
M  ZZM  29 5
M  ZZI  29 1
M  ZZM  30 5
M  ZZI  30 1
M  ZZM  31 5
M  ZZI  31 1
M  END
> <IX>
1

> <NAME>
Cereblon_5V9O_2.pdb

> <Score>
-18.442649

> <Natom>
31

> <Nflex>
1

> <Hbond>
-3.711947

> <Hphob>
-3.515647

> <VwInt>
-24.220711

> <Dsolv>
15.140392

> <SolEl>
6.890907

> <Eintl>
1.702467

> <RecConf>
ND

> <projPath>
Cereblon_maps/

> <NAME_>
Cereblon_5V9O_2.pdb

$$$$
