Cereblon_3MXF_19.pdb
  MOLSOFT 04032206223D

 30 32  0  0  1  0  0  0  0  0999 V2000
   78.9578   42.3515   42.8088 C   0  0  0  0  0  0  0  0  0  0  0  0
   78.1538   42.0570   41.7203 C   0  0  0  0  0  0  0  0  0  0  0  0
   78.1622   42.8626   40.6126 C   0  0  0  0  0  0  0  0  0  0  0  0
   77.2331   42.3011   39.6240 C   0  0  0  0  0  0  0  0  0  0  0  0
   77.0156   42.7666   38.5127 O   0  0  0  0  0  0  0  0  0  0  0  0
   76.7080   41.1567   40.1925 N   0  0  0  0  0  0  0  0  0  0  0  0
   75.6933   40.3297   39.5339 C   0  0  2  0  0  0  0  0  0  0  0  0
   74.3117   40.9170   39.7937 C   0  0  0  0  0  0  0  0  0  0  0  0
   74.1263   42.1050   40.0008 O   0  0  0  0  0  0  0  0  0  0  0  0
   73.2547   40.0436   39.7104 N   0  0  0  0  0  0  0  0  0  0  0  0
   73.2839   38.6945   39.4561 C   0  0  0  0  0  0  0  0  0  0  0  0
   72.2625   38.0301   39.3931 O   0  0  0  0  0  0  0  0  0  0  0  0
   74.6461   38.0963   39.2057 C   0  0  0  0  0  0  0  0  0  0  0  0
   75.7295   38.8621   39.9437 C   0  0  0  0  0  0  0  0  0  0  0  0
   77.2303   40.9116   41.5267 C   0  0  0  0  0  0  0  0  0  0  0  0
   78.9669   43.9798   40.5055 C   0  0  0  0  0  0  0  0  0  0  0  0
   79.7858   44.2723   41.5870 C   0  0  0  0  0  0  0  0  0  0  0  0
   79.7800   43.4690   42.7255 C   0  0  0  0  0  0  0  0  0  0  0  0
   78.9568   41.7263   43.6969 H   0  0  0  0  0  0  0  0  0  0  0  0
   75.8574   40.4197   38.4578 H   0  0  0  0  0  0  0  0  0  0  0  0
   72.3382   40.4492   39.8539 H   0  0  0  0  0  0  0  0  0  0  0  0
   74.6373   37.0545   39.5413 H   0  0  0  0  0  0  0  0  0  0  0  0
   74.8233   38.1041   38.1255 H   0  0  0  0  0  0  0  0  0  0  0  0
   75.5735   38.7577   41.0223 H   0  0  0  0  0  0  0  0  0  0  0  0
   76.7105   38.4286   39.7234 H   0  0  0  0  0  0  0  0  0  0  0  0
   77.7727   39.9603   41.5405 H   0  0  0  0  0  0  0  0  0  0  0  0
   76.4202   40.9117   42.2586 H   0  0  0  0  0  0  0  0  0  0  0  0
   78.9555   44.5984   39.6153 H   0  0  0  0  0  0  0  0  0  0  0  0
   80.4324   45.1415   41.5486 H   0  0  0  0  0  0  0  0  0  0  0  0
   80.4274   43.7193   43.5608 H   0  0  0  0  0  0  0  0  0  0  0  0
  1 19  1  0  0  0  0
  1 18  2  0  0  0  0
  1  2  1  0  0  0  0
  2  3  2  0  0  0  0
  2 15  1  0  0  0  0
  3 16  1  0  0  0  0
  3  4  1  0  0  0  0
  4  6  1  0  0  0  0
  4  5  2  0  0  0  0
  6 15  1  0  0  0  0
  7  6  1  0  0  0  0
  7 20  1  0  0  0  0
  7  8  1  0  0  0  0
  7 14  1  0  0  0  0
  8  9  2  0  0  0  0
  8 10  1  0  0  0  0
 10 21  1  0  0  0  0
 10 11  1  0  0  0  0
 11 12  2  0  0  0  0
 11 13  1  0  0  0  0
 13 22  1  0  0  0  0
 13 23  1  0  0  0  0
 13 14  1  0  0  0  0
 14 24  1  0  0  0  0
 14 25  1  0  0  0  0
 15 26  1  0  0  0  0
 15 27  1  0  0  0  0
 16 17  2  0  0  0  0
 16 28  1  0  0  0  0
 17 18  1  0  0  0  0
 17 29  1  0  0  0  0
 18 30  1  0  0  0  0
M  ZZC   1 c1
M  ZZC   2 c2
M  ZZC   3 c3
M  ZZC   4 c4
M  ZZC   5 o1
M  ZZC   6 n1
M  ZZC   7 c5
M  ZZC   8 c6
M  ZZC   9 o2
M  ZZC  10 n2
M  ZZC  11 c7
M  ZZC  12 o3
M  ZZC  13 c8
M  ZZC  14 c9
M  ZZC  15 c10
M  ZZC  16 c11
M  ZZC  17 c12
M  ZZC  18 c13
M  ZZC  19 h11
M  ZZC  20 h51
M  ZZC  21 h21
M  ZZC  22 h81
M  ZZC  23 h82
M  ZZC  24 h91
M  ZZC  25 h92
M  ZZC  26 h101
M  ZZC  27 h102
M  ZZC  28 h111
M  ZZC  29 h121
M  ZZC  30 h131
M  ZZM   1 37
M  ZZI   1 125
M  ZZM   2 37
M  ZZI   2 124
M  ZZM   3 37
M  ZZI   3 124
M  ZZM   4 3
M  ZZI   4 121
M  ZZM   5 7
M  ZZI   5 81
M  ZZM   6 10
M  ZZI   6 192
M  ZZM   7 1
M  ZZI   7 113
M  ZZM   8 3
M  ZZI   8 121
M  ZZM   9 7
M  ZZI   9 81
M  ZZM  10 10
M  ZZI  10 191
M  ZZM  11 3
M  ZZI  11 121
M  ZZM  12 7
M  ZZI  12 81
M  ZZM  13 1
M  ZZI  13 112
M  ZZM  14 1
M  ZZI  14 112
M  ZZM  15 1
M  ZZI  15 112
M  ZZM  16 37
M  ZZI  16 125
M  ZZM  17 37
M  ZZI  17 125
M  ZZM  18 37
M  ZZI  18 125
M  ZZM  19 5
M  ZZI  19 1
M  ZZM  20 5
M  ZZI  20 1
M  ZZM  21 28
M  ZZI  21 11
M  ZZM  22 5
M  ZZI  22 1
M  ZZM  23 5
M  ZZI  23 1
M  ZZM  24 5
M  ZZI  24 1
M  ZZM  25 5
M  ZZI  25 1
M  ZZM  26 5
M  ZZI  26 1
M  ZZM  27 5
M  ZZI  27 1
M  ZZM  28 5
M  ZZI  28 1
M  ZZM  29 5
M  ZZI  29 1
M  ZZM  30 5
M  ZZI  30 1
M  END
> <IX>
1

> <NAME>
Cereblon_3MXF_19.pdb

> <Score>
-18.698016

> <Natom>
30

> <Nflex>
1

> <Hbond>
-3.273748

> <Hphob>
-3.92521

> <VwInt>
-21.047015

> <Dsolv>
10.991406

> <SolEl>
5.735107

> <Eintl>
1.054576

> <RecConf>
ND

> <projPath>
Cereblon_maps/

> <NAME_>
Cereblon_3MXF_19.pdb

$$$$
