Cereblon_6Z45_4.pdb
  MOLSOFT 04032206313D

 32 34  0  0  1  0  0  0  0  0999 V2000
   77.7138   40.3727   43.0457 N   0  0  0  0  0  0  0  0  0  0  0  0
   77.8607   41.3692   42.0693 C   0  0  0  0  0  0  0  0  0  0  0  0
   77.1309   41.3700   40.8864 C   0  0  0  0  0  0  0  0  0  0  0  0
   76.2159   40.3410   40.3700 C   0  0  0  0  0  0  0  0  0  0  0  0
   75.8814   39.3318   40.9746 O   0  0  0  0  0  0  0  0  0  0  0  0
   75.8439   40.6938   38.9595 C   0  0  2  0  0  0  0  0  0  0  0  0
   76.5029   42.0283   38.7496 C   0  0  0  0  0  0  0  0  0  0  0  0
   76.4606   42.7196   37.7405 O   0  0  0  0  0  0  0  0  0  0  0  0
   77.2845   42.3570   39.9455 C   0  0  0  0  0  0  0  0  0  0  0  0
   78.1499   43.4208   40.1291 C   0  0  0  0  0  0  0  0  0  0  0  0
   78.8720   43.4502   41.3145 C   0  0  0  0  0  0  0  0  0  0  0  0
   78.7161   42.4485   42.2735 C   0  0  0  0  0  0  0  0  0  0  0  0
   74.3569   40.6600   38.5265 C   0  0  2  0  0  0  0  0  0  0  0  0
   73.4407   41.4660   39.4101 C   0  0  0  0  0  0  0  0  0  0  0  0
   73.8747   42.3245   40.1550 O   0  0  0  0  0  0  0  0  0  0  0  0
   72.0937   41.2405   39.2444 N   0  0  0  0  0  0  0  0  0  0  0  0
   71.4848   40.2952   38.4507 C   0  0  0  0  0  0  0  0  0  0  0  0
   70.2750   40.2859   38.2702 O   0  0  0  0  0  0  0  0  0  0  0  0
   72.4107   39.3127   37.7693 C   0  0  0  0  0  0  0  0  0  0  0  0
   73.7776   39.2515   38.4389 C   0  0  0  0  0  0  0  0  0  0  0  0
   78.4349   40.2644   43.7576 H   0  0  0  0  0  0  0  0  0  0  0  0
   77.1211   39.5705   42.8301 H   0  0  0  0  0  0  0  0  0  0  0  0
   76.4072   39.9912   38.3480 H   0  0  0  0  0  0  0  0  0  0  0  0
   78.2752   44.1908   39.3743 H   0  0  0  0  0  0  0  0  0  0  0  0
   79.5593   44.2693   41.5022 H   0  0  0  0  0  0  0  0  0  0  0  0
   79.2878   42.5091   43.1944 H   0  0  0  0  0  0  0  0  0  0  0  0
   74.2864   41.1297   37.5377 H   0  0  0  0  0  0  0  0  0  0  0  0
   71.4760   41.8766   39.7323 H   0  0  0  0  0  0  0  0  0  0  0  0
   71.9432   38.3232   37.7913 H   0  0  0  0  0  0  0  0  0  0  0  0
   72.5102   39.6159   36.7213 H   0  0  0  0  0  0  0  0  0  0  0  0
   74.4333   38.5929   37.8613 H   0  0  0  0  0  0  0  0  0  0  0  0
   73.6783   38.8136   39.4388 H   0  0  0  0  0  0  0  0  0  0  0  0
  1  2  1  0  0  0  0
  1 21  1  0  0  0  0
  1 22  1  0  0  0  0
  2  3  1  0  0  0  0
  2 12  2  0  0  0  0
  3  4  1  0  0  0  0
  3  9  2  0  0  0  0
  4  5  2  0  0  0  0
  6  4  1  0  0  0  0
  6  7  1  0  0  0  0
  6 23  1  0  0  0  0
  6 13  1  0  0  0  0
  7  9  1  0  0  0  0
  7  8  2  0  0  0  0
  9 10  1  0  0  0  0
 10 11  2  0  0  0  0
 10 24  1  0  0  0  0
 11 12  1  0  0  0  0
 11 25  1  0  0  0  0
 12 26  1  0  0  0  0
 13 27  1  0  0  0  0
 13 14  1  0  0  0  0
 13 20  1  0  0  0  0
 14 15  2  0  0  0  0
 14 16  1  0  0  0  0
 16 28  1  0  0  0  0
 16 17  1  0  0  0  0
 17 18  2  0  0  0  0
 17 19  1  0  0  0  0
 19 29  1  0  0  0  0
 19 30  1  0  0  0  0
 19 20  1  0  0  0  0
 20 31  1  0  0  0  0
 20 32  1  0  0  0  0
M  ZZC   1 n1
M  ZZC   2 c1
M  ZZC   3 c2
M  ZZC   4 c3
M  ZZC   5 o1
M  ZZC   6 c4
M  ZZC   7 c5
M  ZZC   8 o2
M  ZZC   9 c6
M  ZZC  10 c7
M  ZZC  11 c8
M  ZZC  12 c9
M  ZZC  13 c10
M  ZZC  14 c11
M  ZZC  15 o3
M  ZZC  16 n2
M  ZZC  17 c12
M  ZZC  18 o4
M  ZZC  19 c13
M  ZZC  20 c14
M  ZZC  21 h11
M  ZZC  22 h12
M  ZZC  23 h41
M  ZZC  24 h71
M  ZZC  25 h81
M  ZZC  26 h91
M  ZZC  27 h101
M  ZZC  28 h21
M  ZZC  29 h131
M  ZZC  30 h132
M  ZZC  31 h141
M  ZZC  32 h142
M  ZZM   1 40
M  ZZI   1 224
M  ZZM   2 37
M  ZZI   2 124
M  ZZM   3 37
M  ZZI   3 124
M  ZZM   4 3
M  ZZI   4 122
M  ZZM   5 7
M  ZZI   5 80
M  ZZM   6 1
M  ZZI   6 113
M  ZZM   7 3
M  ZZI   7 122
M  ZZM   8 7
M  ZZI   8 80
M  ZZM   9 37
M  ZZI   9 124
M  ZZM  10 37
M  ZZI  10 125
M  ZZM  11 37
M  ZZI  11 125
M  ZZM  12 37
M  ZZI  12 125
M  ZZM  13 1
M  ZZI  13 113
M  ZZM  14 3
M  ZZI  14 121
M  ZZM  15 7
M  ZZI  15 81
M  ZZM  16 10
M  ZZI  16 191
M  ZZM  17 3
M  ZZI  17 121
M  ZZM  18 7
M  ZZI  18 81
M  ZZM  19 1
M  ZZI  19 112
M  ZZM  20 1
M  ZZI  20 112
M  ZZM  21 28
M  ZZI  21 11
M  ZZM  22 28
M  ZZI  22 11
M  ZZM  23 5
M  ZZI  23 1
M  ZZM  24 5
M  ZZI  24 1
M  ZZM  25 5
M  ZZI  25 1
M  ZZM  26 5
M  ZZI  26 1
M  ZZM  27 5
M  ZZI  27 1
M  ZZM  28 28
M  ZZI  28 11
M  ZZM  29 5
M  ZZI  29 1
M  ZZM  30 5
M  ZZI  30 1
M  ZZM  31 5
M  ZZI  31 1
M  ZZM  32 5
M  ZZI  32 1
M  END
> <IX>
1

> <NAME>
Cereblon_6Z45_4.pdb

> <Score>
-15.152219

> <Natom>
32

> <Nflex>
1

> <Hbond>
-4.482336

> <Hphob>
-3.43805

> <VwInt>
-20.946938

> <Dsolv>
17.406297

> <SolEl>
5.749149

> <Eintl>
3.3156

> <RecConf>
ND

> <projPath>
Cereblon_maps/

> <NAME_>
Cereblon_6Z45_4.pdb

$$$$
