Cereblon_2EUF_6.pdb
  MOLSOFT 04032206193D

 31 33  0  0  1  0  0  0  0  0999 V2000
   78.8130   41.6769   43.8192 N   0  0  0  0  0  0  0  0  0  0  0  0
   78.9068   42.4219   42.6331 C   0  0  0  0  0  0  0  0  0  0  0  0
   78.1008   42.1571   41.5387 C   0  0  0  0  0  0  0  0  0  0  0  0
   77.1797   41.0466   41.3311 C   0  0  0  0  0  0  0  0  0  0  0  0
   76.9989   40.1636   42.1564 O   0  0  0  0  0  0  0  0  0  0  0  0
   76.6462   41.2106   40.0682 N   0  0  0  0  0  0  0  0  0  0  0  0
   77.1671   42.3318   39.4549 C   0  0  0  0  0  0  0  0  0  0  0  0
   76.9539   42.7551   38.3263 O   0  0  0  0  0  0  0  0  0  0  0  0
   78.0980   42.9269   40.4150 C   0  0  0  0  0  0  0  0  0  0  0  0
   78.9096   44.0363   40.2951 C   0  0  0  0  0  0  0  0  0  0  0  0
   79.7249   44.3366   41.3803 C   0  0  0  0  0  0  0  0  0  0  0  0
   79.7112   43.5534   42.5361 C   0  0  0  0  0  0  0  0  0  0  0  0
   75.6259   40.3748   39.4313 C   0  0  2  0  0  0  0  0  0  0  0  0
   74.2551   40.9547   39.7356 C   0  0  0  0  0  0  0  0  0  0  0  0
   74.0848   42.1347   39.9935 O   0  0  0  0  0  0  0  0  0  0  0  0
   73.1939   40.0903   39.6197 N   0  0  0  0  0  0  0  0  0  0  0  0
   73.2174   38.7525   39.3078 C   0  0  0  0  0  0  0  0  0  0  0  0
   72.1917   38.1009   39.1978 O   0  0  0  0  0  0  0  0  0  0  0  0
   74.5801   38.1517   39.0571 C   0  0  0  0  0  0  0  0  0  0  0  0
   75.6579   38.9005   39.8210 C   0  0  0  0  0  0  0  0  0  0  0  0
   79.5542   41.7609   44.5114 H   0  0  0  0  0  0  0  0  0  0  0  0
   78.3238   40.7816   43.7766 H   0  0  0  0  0  0  0  0  0  0  0  0
   78.9020   44.6440   39.3981 H   0  0  0  0  0  0  0  0  0  0  0  0
   80.3724   45.2052   41.3352 H   0  0  0  0  0  0  0  0  0  0  0  0
   80.3418   43.8363   43.3734 H   0  0  0  0  0  0  0  0  0  0  0  0
   75.7616   40.4747   38.3531 H   0  0  0  0  0  0  0  0  0  0  0  0
   72.2788   40.4926   39.7809 H   0  0  0  0  0  0  0  0  0  0  0  0
   74.5624   37.1043   39.3750 H   0  0  0  0  0  0  0  0  0  0  0  0
   74.7698   38.1757   37.9796 H   0  0  0  0  0  0  0  0  0  0  0  0
   75.4724   38.7731   40.8914 H   0  0  0  0  0  0  0  0  0  0  0  0
   76.6422   38.4682   39.6145 H   0  0  0  0  0  0  0  0  0  0  0  0
  1  2  1  0  0  0  0
  1 21  1  0  0  0  0
  1 22  1  0  0  0  0
  2  3  1  0  0  0  0
  2 12  2  0  0  0  0
  3  9  2  0  0  0  0
  3  4  1  0  0  0  0
  4  5  2  0  0  0  0
  4  6  1  0  0  0  0
  6  7  1  0  0  0  0
 13  6  1  0  0  0  0
  7  8  2  0  0  0  0
  7  9  1  0  0  0  0
  9 10  1  0  0  0  0
 10 23  1  0  0  0  0
 10 11  2  0  0  0  0
 11 12  1  0  0  0  0
 11 24  1  0  0  0  0
 12 25  1  0  0  0  0
 13 26  1  0  0  0  0
 13 14  1  0  0  0  0
 13 20  1  0  0  0  0
 14 15  2  0  0  0  0
 14 16  1  0  0  0  0
 16 27  1  0  0  0  0
 16 17  1  0  0  0  0
 17 18  2  0  0  0  0
 17 19  1  0  0  0  0
 19 28  1  0  0  0  0
 19 29  1  0  0  0  0
 19 20  1  0  0  0  0
 20 30  1  0  0  0  0
 20 31  1  0  0  0  0
M  ZZC   1 n1
M  ZZC   2 c1
M  ZZC   3 c2
M  ZZC   4 c3
M  ZZC   5 o1
M  ZZC   6 n2
M  ZZC   7 c4
M  ZZC   8 o2
M  ZZC   9 c5
M  ZZC  10 c6
M  ZZC  11 c7
M  ZZC  12 c8
M  ZZC  13 c9
M  ZZC  14 c10
M  ZZC  15 o3
M  ZZC  16 n3
M  ZZC  17 c11
M  ZZC  18 o4
M  ZZC  19 c12
M  ZZC  20 c13
M  ZZC  21 h11
M  ZZC  22 h12
M  ZZC  23 h61
M  ZZC  24 h71
M  ZZC  25 h81
M  ZZC  26 h91
M  ZZC  27 h31
M  ZZC  28 h121
M  ZZC  29 h122
M  ZZC  30 h131
M  ZZC  31 h132
M  ZZM   1 40
M  ZZI   1 224
M  ZZM   2 37
M  ZZI   2 124
M  ZZM   3 37
M  ZZI   3 124
M  ZZM   4 3
M  ZZI   4 121
M  ZZM   5 7
M  ZZI   5 81
M  ZZM   6 10
M  ZZI   6 192
M  ZZM   7 3
M  ZZI   7 121
M  ZZM   8 7
M  ZZI   8 81
M  ZZM   9 37
M  ZZI   9 124
M  ZZM  10 37
M  ZZI  10 125
M  ZZM  11 37
M  ZZI  11 125
M  ZZM  12 37
M  ZZI  12 125
M  ZZM  13 1
M  ZZI  13 113
M  ZZM  14 3
M  ZZI  14 121
M  ZZM  15 7
M  ZZI  15 81
M  ZZM  16 10
M  ZZI  16 191
M  ZZM  17 3
M  ZZI  17 121
M  ZZM  18 7
M  ZZI  18 81
M  ZZM  19 1
M  ZZI  19 112
M  ZZM  20 1
M  ZZI  20 112
M  ZZM  21 28
M  ZZI  21 11
M  ZZM  22 28
M  ZZI  22 11
M  ZZM  23 5
M  ZZI  23 1
M  ZZM  24 5
M  ZZI  24 1
M  ZZM  25 5
M  ZZI  25 1
M  ZZM  26 5
M  ZZI  26 1
M  ZZM  27 28
M  ZZI  27 11
M  ZZM  28 5
M  ZZI  28 1
M  ZZM  29 5
M  ZZI  29 1
M  ZZM  30 5
M  ZZI  30 1
M  ZZM  31 5
M  ZZI  31 1
M  END
> <IX>
1

> <NAME>
Cereblon_2EUF_6.pdb

> <Score>
-18.569037

> <Natom>
31

> <Nflex>
1

> <Hbond>
-3.709811

> <Hphob>
-3.555411

> <VwInt>
-24.202909

> <Dsolv>
15.05885

> <SolEl>
6.812161

> <Eintl>
1.68609

> <RecConf>
ND

> <projPath>
Cereblon_maps/

> <NAME_>
Cereblon_2EUF_6.pdb

$$$$
