Cereblon_5J8O_22.pdb
  MOLSOFT 04032206253D

 29 31  0  0  1  0  0  0  0  0999 V2000
   79.0048   42.4895   42.6730 C   0  0  0  0  0  0  0  0  0  0  0  0
   78.1862   42.1953   41.5970 C   0  0  0  0  0  0  0  0  0  0  0  0
   77.2682   41.0776   41.4109 C   0  0  0  0  0  0  0  0  0  0  0  0
   77.0875   40.2172   42.2588 O   0  0  0  0  0  0  0  0  0  0  0  0
   76.7278   41.2204   40.1461 N   0  0  0  0  0  0  0  0  0  0  0  0
   77.2241   42.3478   39.5236 C   0  0  0  0  0  0  0  0  0  0  0  0
   76.9883   42.7661   38.3975 O   0  0  0  0  0  0  0  0  0  0  0  0
   78.1592   42.9587   40.4687 C   0  0  0  0  0  0  0  0  0  0  0  0
   78.9585   44.0748   40.3271 C   0  0  0  0  0  0  0  0  0  0  0  0
   79.8004   44.3838   41.3894 C   0  0  0  0  0  0  0  0  0  0  0  0
   79.8239   43.6051   42.5470 C   0  0  0  0  0  0  0  0  0  0  0  0
   75.7192   40.3662   39.5128 C   0  0  2  0  0  0  0  0  0  0  0  0
   74.3394   40.9356   39.8019 C   0  0  0  0  0  0  0  0  0  0  0  0
   74.1531   42.1219   40.0163 O   0  0  0  0  0  0  0  0  0  0  0  0
   73.2887   40.0541   39.7263 N   0  0  0  0  0  0  0  0  0  0  0  0
   73.3262   38.7082   39.4552 C   0  0  0  0  0  0  0  0  0  0  0  0
   72.3101   38.0353   39.3981 O   0  0  0  0  0  0  0  0  0  0  0  0
   74.6905   38.1263   39.1778 C   0  0  0  0  0  0  0  0  0  0  0  0
   75.7729   38.8957   39.9144 C   0  0  0  0  0  0  0  0  0  0  0  0
   79.0161   41.8740   43.5684 H   0  0  0  0  0  0  0  0  0  0  0  0
   78.9271   44.6769   39.4268 H   0  0  0  0  0  0  0  0  0  0  0  0
   80.4485   45.2498   41.3200 H   0  0  0  0  0  0  0  0  0  0  0  0
   80.4907   43.8740   43.3612 H   0  0  0  0  0  0  0  0  0  0  0  0
   75.8585   40.4541   38.4333 H   0  0  0  0  0  0  0  0  0  0  0  0
   72.3704   40.4483   39.8890 H   0  0  0  0  0  0  0  0  0  0  0  0
   74.6964   37.0805   39.5013 H   0  0  0  0  0  0  0  0  0  0  0  0
   74.8519   38.1483   38.0956 H   0  0  0  0  0  0  0  0  0  0  0  0
   76.7585   38.4736   39.6923 H   0  0  0  0  0  0  0  0  0  0  0  0
   75.6101   38.7762   40.9891 H   0  0  0  0  0  0  0  0  0  0  0  0
  1 20  1  0  0  0  0
  1  2  1  0  0  0  0
  1 11  2  0  0  0  0
  2  3  1  0  0  0  0
  2  8  2  0  0  0  0
  3  4  2  0  0  0  0
  3  5  1  0  0  0  0
  5  6  1  0  0  0  0
 12  5  1  0  0  0  0
  6  7  2  0  0  0  0
  6  8  1  0  0  0  0
  8  9  1  0  0  0  0
  9 21  1  0  0  0  0
  9 10  2  0  0  0  0
 10 22  1  0  0  0  0
 10 11  1  0  0  0  0
 11 23  1  0  0  0  0
 12 24  1  0  0  0  0
 12 13  1  0  0  0  0
 12 19  1  0  0  0  0
 13 14  2  0  0  0  0
 13 15  1  0  0  0  0
 15 25  1  0  0  0  0
 15 16  1  0  0  0  0
 16 17  2  0  0  0  0
 16 18  1  0  0  0  0
 18 26  1  0  0  0  0
 18 27  1  0  0  0  0
 18 19  1  0  0  0  0
 19 28  1  0  0  0  0
 19 29  1  0  0  0  0
M  ZZC   1 c1
M  ZZC   2 c2
M  ZZC   3 c3
M  ZZC   4 o1
M  ZZC   5 n1
M  ZZC   6 c4
M  ZZC   7 o2
M  ZZC   8 c5
M  ZZC   9 c6
M  ZZC  10 c7
M  ZZC  11 c8
M  ZZC  12 c9
M  ZZC  13 c10
M  ZZC  14 o3
M  ZZC  15 n2
M  ZZC  16 c11
M  ZZC  17 o4
M  ZZC  18 c12
M  ZZC  19 c13
M  ZZC  20 h11
M  ZZC  21 h61
M  ZZC  22 h71
M  ZZC  23 h81
M  ZZC  24 h91
M  ZZC  25 h21
M  ZZC  26 h121
M  ZZC  27 h122
M  ZZC  28 h131
M  ZZC  29 h132
M  ZZM   1 37
M  ZZI   1 125
M  ZZM   2 37
M  ZZI   2 124
M  ZZM   3 3
M  ZZI   3 121
M  ZZM   4 7
M  ZZI   4 81
M  ZZM   5 10
M  ZZI   5 192
M  ZZM   6 3
M  ZZI   6 121
M  ZZM   7 7
M  ZZI   7 81
M  ZZM   8 37
M  ZZI   8 124
M  ZZM   9 37
M  ZZI   9 125
M  ZZM  10 37
M  ZZI  10 125
M  ZZM  11 37
M  ZZI  11 125
M  ZZM  12 1
M  ZZI  12 113
M  ZZM  13 3
M  ZZI  13 121
M  ZZM  14 7
M  ZZI  14 81
M  ZZM  15 10
M  ZZI  15 191
M  ZZM  16 3
M  ZZI  16 121
M  ZZM  17 7
M  ZZI  17 81
M  ZZM  18 1
M  ZZI  18 112
M  ZZM  19 1
M  ZZI  19 112
M  ZZM  20 5
M  ZZI  20 1
M  ZZM  21 5
M  ZZI  21 1
M  ZZM  22 5
M  ZZI  22 1
M  ZZM  23 5
M  ZZI  23 1
M  ZZM  24 5
M  ZZI  24 1
M  ZZM  25 28
M  ZZI  25 11
M  ZZM  26 5
M  ZZI  26 1
M  ZZM  27 5
M  ZZI  27 1
M  ZZM  28 5
M  ZZI  28 1
M  ZZM  29 5
M  ZZI  29 1
M  END
> <IX>
1

> <NAME>
Cereblon_5J8O_22.pdb

> <Score>
-19.342355

> <Natom>
29

> <Nflex>
1

> <Hbond>
-3.370478

> <Hphob>
-3.50596

> <VwInt>
-22.693535

> <Dsolv>
12.042745

> <SolEl>
5.611538

> <Eintl>
1.486345

> <RecConf>
ND

> <projPath>
Cereblon_maps/

> <NAME_>
Cereblon_5J8O_22.pdb

$$$$
