Cereblon_5P9J_7.pdb
  MOLSOFT 04032206263D

 29 31  0  0  1  0  0  0  0  0999 V2000
   79.8224   43.6066   42.5447 C   0  0  0  0  0  0  0  0  0  0  0  0
   79.0043   42.4903   42.6713 C   0  0  0  0  0  0  0  0  0  0  0  0
   78.1854   42.1954   41.5956 C   0  0  0  0  0  0  0  0  0  0  0  0
   77.2675   41.0775   41.4106 C   0  0  0  0  0  0  0  0  0  0  0  0
   77.0881   40.2167   42.2583 O   0  0  0  0  0  0  0  0  0  0  0  0
   76.7270   41.2193   40.1457 N   0  0  0  0  0  0  0  0  0  0  0  0
   77.2230   42.3461   39.5221 C   0  0  0  0  0  0  0  0  0  0  0  0
   76.9868   42.7642   38.3960 O   0  0  0  0  0  0  0  0  0  0  0  0
   78.1577   42.9582   40.4670 C   0  0  0  0  0  0  0  0  0  0  0  0
   78.9567   44.0743   40.3246 C   0  0  0  0  0  0  0  0  0  0  0  0
   79.7985   44.3846   41.3867 C   0  0  0  0  0  0  0  0  0  0  0  0
   75.7179   40.3647   39.5137 C   0  0  2  0  0  0  0  0  0  0  0  0
   74.3380   40.9336   39.8033 C   0  0  0  0  0  0  0  0  0  0  0  0
   74.1509   42.1196   40.0183 O   0  0  0  0  0  0  0  0  0  0  0  0
   73.2874   40.0520   39.7260 N   0  0  0  0  0  0  0  0  0  0  0  0
   73.3258   38.7062   39.4544 C   0  0  0  0  0  0  0  0  0  0  0  0
   72.3101   38.0326   39.3968 O   0  0  0  0  0  0  0  0  0  0  0  0
   74.6906   38.1254   39.1771 C   0  0  0  0  0  0  0  0  0  0  0  0
   75.7723   38.8943   39.9152 C   0  0  0  0  0  0  0  0  0  0  0  0
   80.4898   43.8756   43.3585 H   0  0  0  0  0  0  0  0  0  0  0  0
   79.0162   41.8753   43.5667 H   0  0  0  0  0  0  0  0  0  0  0  0
   78.9262   44.6755   39.4238 H   0  0  0  0  0  0  0  0  0  0  0  0
   80.4462   45.2512   41.3173 H   0  0  0  0  0  0  0  0  0  0  0  0
   75.8568   40.4523   38.4342 H   0  0  0  0  0  0  0  0  0  0  0  0
   72.3690   40.4459   39.8888 H   0  0  0  0  0  0  0  0  0  0  0  0
   74.6971   37.0797   39.5013 H   0  0  0  0  0  0  0  0  0  0  0  0
   74.8524   38.1473   38.0950 H   0  0  0  0  0  0  0  0  0  0  0  0
   76.7581   38.4727   39.6927 H   0  0  0  0  0  0  0  0  0  0  0  0
   75.6082   38.7750   40.9899 H   0  0  0  0  0  0  0  0  0  0  0  0
  1 20  1  0  0  0  0
  1  2  1  0  0  0  0
  1 11  2  0  0  0  0
  2 21  1  0  0  0  0
  2  3  2  0  0  0  0
  3  4  1  0  0  0  0
  3  9  1  0  0  0  0
  4  5  2  0  0  0  0
  4  6  1  0  0  0  0
  6  7  1  0  0  0  0
 12  6  1  0  0  0  0
  7  8  2  0  0  0  0
  7  9  1  0  0  0  0
  9 10  2  0  0  0  0
 10 22  1  0  0  0  0
 10 11  1  0  0  0  0
 11 23  1  0  0  0  0
 12 24  1  0  0  0  0
 12 13  1  0  0  0  0
 12 19  1  0  0  0  0
 13 14  2  0  0  0  0
 13 15  1  0  0  0  0
 15 25  1  0  0  0  0
 15 16  1  0  0  0  0
 16 17  2  0  0  0  0
 16 18  1  0  0  0  0
 18 26  1  0  0  0  0
 18 27  1  0  0  0  0
 18 19  1  0  0  0  0
 19 28  1  0  0  0  0
 19 29  1  0  0  0  0
M  ZZC   1 c1
M  ZZC   2 c2
M  ZZC   3 c3
M  ZZC   4 c4
M  ZZC   5 o1
M  ZZC   6 n1
M  ZZC   7 c5
M  ZZC   8 o2
M  ZZC   9 c6
M  ZZC  10 c7
M  ZZC  11 c8
M  ZZC  12 c9
M  ZZC  13 c10
M  ZZC  14 o3
M  ZZC  15 n2
M  ZZC  16 c11
M  ZZC  17 o4
M  ZZC  18 c12
M  ZZC  19 c13
M  ZZC  20 h11
M  ZZC  21 h21
M  ZZC  22 h71
M  ZZC  23 h81
M  ZZC  24 h91
M  ZZC  25 h01
M  ZZC  26 h121
M  ZZC  27 h122
M  ZZC  28 h131
M  ZZC  29 h132
M  ZZM   1 37
M  ZZI   1 125
M  ZZM   2 37
M  ZZI   2 125
M  ZZM   3 37
M  ZZI   3 124
M  ZZM   4 3
M  ZZI   4 121
M  ZZM   5 7
M  ZZI   5 81
M  ZZM   6 10
M  ZZI   6 192
M  ZZM   7 3
M  ZZI   7 121
M  ZZM   8 7
M  ZZI   8 81
M  ZZM   9 37
M  ZZI   9 124
M  ZZM  10 37
M  ZZI  10 125
M  ZZM  11 37
M  ZZI  11 125
M  ZZM  12 1
M  ZZI  12 113
M  ZZM  13 3
M  ZZI  13 121
M  ZZM  14 7
M  ZZI  14 81
M  ZZM  15 10
M  ZZI  15 191
M  ZZM  16 3
M  ZZI  16 121
M  ZZM  17 7
M  ZZI  17 81
M  ZZM  18 1
M  ZZI  18 112
M  ZZM  19 1
M  ZZI  19 112
M  ZZM  20 5
M  ZZI  20 1
M  ZZM  21 5
M  ZZI  21 1
M  ZZM  22 5
M  ZZI  22 1
M  ZZM  23 5
M  ZZI  23 1
M  ZZM  24 5
M  ZZI  24 1
M  ZZM  25 28
M  ZZI  25 11
M  ZZM  26 5
M  ZZI  26 1
M  ZZM  27 5
M  ZZI  27 1
M  ZZM  28 5
M  ZZI  28 1
M  ZZM  29 5
M  ZZI  29 1
M  END
> <IX>
1

> <NAME>
Cereblon_5P9J_7.pdb

> <Score>
-19.486529

> <Natom>
29

> <Nflex>
1

> <Hbond>
-3.367025

> <Hphob>
-3.531833

> <VwInt>
-22.699164

> <Dsolv>
11.974656

> <SolEl>
5.50579

> <Eintl>
1.471204

> <RecConf>
ND

> <projPath>
Cereblon_maps/

> <NAME_>
Cereblon_5P9J_7.pdb

$$$$
