Cereblon_5VBP_22.pdb
  MOLSOFT 04032206273D

 31 33  0  0  1  0  0  0  0  0999 V2000
   73.3986   41.6034   40.6981 O   0  0  0  0  0  0  0  0  0  0  0  0
   73.2242   41.3228   39.5248 C   0  0  0  0  0  0  0  0  0  0  0  0
   74.3639   41.0489   38.5530 C   0  0  2  0  0  0  0  0  0  0  0  0
   75.6110   41.5527   39.1565 N   0  0  0  0  0  0  0  0  0  0  0  0
   76.2286   40.9082   40.2123 C   0  0  0  0  0  0  0  0  0  0  0  0
   75.9834   39.8125   40.6974 O   0  0  0  0  0  0  0  0  0  0  0  0
   77.3006   41.7869   40.6732 C   0  0  0  0  0  0  0  0  0  0  0  0
   78.1416   41.6612   41.7699 C   0  0  0  0  0  0  0  0  0  0  0  0
   77.9916   40.6343   42.7174 N   0  0  0  0  0  0  0  0  0  0  0  0
   79.0644   42.6896   41.9513 C   0  0  0  0  0  0  0  0  0  0  0  0
   79.1722   43.7448   41.0432 C   0  0  0  0  0  0  0  0  0  0  0  0
   78.3238   43.8327   39.9468 C   0  0  0  0  0  0  0  0  0  0  0  0
   77.3815   42.8309   39.8031 C   0  0  0  0  0  0  0  0  0  0  0  0
   76.3445   42.6617   38.7854 C   0  0  0  0  0  0  0  0  0  0  0  0
   76.2467   43.3713   37.7956 O   0  0  0  0  0  0  0  0  0  0  0  0
   73.9386   41.6702   37.2223 C   0  0  0  0  0  0  0  0  0  0  0  0
   72.7003   40.9497   36.7038 C   0  0  0  0  0  0  0  0  0  0  0  0
   71.5815   40.9444   37.7250 C   0  0  0  0  0  0  0  0  0  0  0  0
   70.4204   40.6994   37.4355 O   0  0  0  0  0  0  0  0  0  0  0  0
   71.9557   41.1803   39.0222 N   0  0  0  0  0  0  0  0  0  0  0  0
   74.4580   39.9599   38.4668 H   0  0  0  0  0  0  0  0  0  0  0  0
   77.3592   39.8683   42.4820 H   0  0  0  0  0  0  0  0  0  0  0  0
   78.7722   40.4202   43.3366 H   0  0  0  0  0  0  0  0  0  0  0  0
   79.7181   42.6728   42.8177 H   0  0  0  0  0  0  0  0  0  0  0  0
   79.9138   44.5199   41.2096 H   0  0  0  0  0  0  0  0  0  0  0  0
   78.3860   44.6588   39.2469 H   0  0  0  0  0  0  0  0  0  0  0  0
   74.7348   41.6146   36.4788 H   0  0  0  0  0  0  0  0  0  0  0  0
   73.7095   42.7347   37.3508 H   0  0  0  0  0  0  0  0  0  0  0  0
   72.3401   41.4454   35.7965 H   0  0  0  0  0  0  0  0  0  0  0  0
   72.9353   39.9103   36.4515 H   0  0  0  0  0  0  0  0  0  0  0  0
   71.2032   41.2756   39.6917 H   0  0  0  0  0  0  0  0  0  0  0  0
  1  2  2  0  0  0  0
  3  2  1  0  0  0  0
  2 20  1  0  0  0  0
  3  4  1  0  0  0  0
  3 21  1  0  0  0  0
  3 16  1  0  0  0  0
  4  5  1  0  0  0  0
  4 14  1  0  0  0  0
  5  7  1  0  0  0  0
  5  6  2  0  0  0  0
  7  8  1  0  0  0  0
  7 13  2  0  0  0  0
  8 10  2  0  0  0  0
  8  9  1  0  0  0  0
  9 22  1  0  0  0  0
  9 23  1  0  0  0  0
 10 24  1  0  0  0  0
 10 11  1  0  0  0  0
 11 12  2  0  0  0  0
 11 25  1  0  0  0  0
 12 13  1  0  0  0  0
 12 26  1  0  0  0  0
 13 14  1  0  0  0  0
 14 15  2  0  0  0  0
 16 17  1  0  0  0  0
 16 27  1  0  0  0  0
 16 28  1  0  0  0  0
 17 18  1  0  0  0  0
 17 29  1  0  0  0  0
 17 30  1  0  0  0  0
 18 20  1  0  0  0  0
 18 19  2  0  0  0  0
 20 31  1  0  0  0  0
M  ZZC   1 o1
M  ZZC   2 c1
M  ZZC   3 c2
M  ZZC   4 n1
M  ZZC   5 c3
M  ZZC   6 o2
M  ZZC   7 c4
M  ZZC   8 c5
M  ZZC   9 n2
M  ZZC  10 c6
M  ZZC  11 c7
M  ZZC  12 c8
M  ZZC  13 c9
M  ZZC  14 c10
M  ZZC  15 o3
M  ZZC  16 c11
M  ZZC  17 c12
M  ZZC  18 c13
M  ZZC  19 o4
M  ZZC  20 n3
M  ZZC  21 h21
M  ZZC  22 h01
M  ZZC  23 h22
M  ZZC  24 h61
M  ZZC  25 h71
M  ZZC  26 h81
M  ZZC  27 h111
M  ZZC  28 h112
M  ZZC  29 h121
M  ZZC  30 h122
M  ZZC  31 h31
M  ZZM   1 7
M  ZZI   1 81
M  ZZM   2 3
M  ZZI   2 121
M  ZZM   3 1
M  ZZI   3 113
M  ZZM   4 10
M  ZZI   4 192
M  ZZM   5 3
M  ZZI   5 121
M  ZZM   6 7
M  ZZI   6 81
M  ZZM   7 37
M  ZZI   7 124
M  ZZM   8 37
M  ZZI   8 124
M  ZZM   9 40
M  ZZI   9 224
M  ZZM  10 37
M  ZZI  10 125
M  ZZM  11 37
M  ZZI  11 125
M  ZZM  12 37
M  ZZI  12 125
M  ZZM  13 37
M  ZZI  13 124
M  ZZM  14 3
M  ZZI  14 121
M  ZZM  15 7
M  ZZI  15 81
M  ZZM  16 1
M  ZZI  16 112
M  ZZM  17 1
M  ZZI  17 112
M  ZZM  18 3
M  ZZI  18 121
M  ZZM  19 7
M  ZZI  19 81
M  ZZM  20 10
M  ZZI  20 191
M  ZZM  21 5
M  ZZI  21 1
M  ZZM  22 28
M  ZZI  22 11
M  ZZM  23 28
M  ZZI  23 11
M  ZZM  24 5
M  ZZI  24 1
M  ZZM  25 5
M  ZZI  25 1
M  ZZM  26 5
M  ZZI  26 1
M  ZZM  27 5
M  ZZI  27 1
M  ZZM  28 5
M  ZZI  28 1
M  ZZM  29 5
M  ZZI  29 1
M  ZZM  30 5
M  ZZI  30 1
M  ZZM  31 28
M  ZZI  31 11
M  END
> <IX>
1

> <NAME>
Cereblon_5VBP_22.pdb

> <Score>
-14.582904

> <Natom>
31

> <Nflex>
1

> <Hbond>
-2.771892

> <Hphob>
-3.771413

> <VwInt>
-26.966348

> <Dsolv>
16.952627

> <SolEl>
7.76885

> <Eintl>
5.80211

> <RecConf>
ND

> <projPath>
Cereblon_maps/

> <NAME_>
Cereblon_5VBP_22.pdb

$$$$
