Cereblon_5P9J_3.pdb
  MOLSOFT 04032206263D

 29 31  0  0  1  0  0  0  0  0999 V2000
   79.0042   42.4897   42.6731 C   0  0  0  0  0  0  0  0  0  0  0  0
   78.1855   42.1951   41.5973 C   0  0  0  0  0  0  0  0  0  0  0  0
   77.2675   41.0774   41.4117 C   0  0  0  0  0  0  0  0  0  0  0  0
   77.0887   40.2157   42.2587 O   0  0  0  0  0  0  0  0  0  0  0  0
   76.7267   41.2200   40.1470 N   0  0  0  0  0  0  0  0  0  0  0  0
   77.2227   42.3473   39.5243 C   0  0  0  0  0  0  0  0  0  0  0  0
   76.9868   42.7657   38.3982 O   0  0  0  0  0  0  0  0  0  0  0  0
   78.1582   42.9583   40.4689 C   0  0  0  0  0  0  0  0  0  0  0  0
   78.9571   44.0744   40.3268 C   0  0  0  0  0  0  0  0  0  0  0  0
   79.7998   44.3837   41.3886 C   0  0  0  0  0  0  0  0  0  0  0  0
   79.8234   43.6050   42.5462 C   0  0  0  0  0  0  0  0  0  0  0  0
   75.7186   40.3655   39.5132 C   0  0  2  0  0  0  0  0  0  0  0  0
   74.3384   40.9343   39.8015 C   0  0  0  0  0  0  0  0  0  0  0  0
   74.1518   42.1207   40.0152 O   0  0  0  0  0  0  0  0  0  0  0  0
   73.2879   40.0526   39.7259 N   0  0  0  0  0  0  0  0  0  0  0  0
   73.3257   38.7069   39.4542 C   0  0  0  0  0  0  0  0  0  0  0  0
   72.3099   38.0337   39.3957 O   0  0  0  0  0  0  0  0  0  0  0  0
   74.6906   38.1256   39.1780 C   0  0  0  0  0  0  0  0  0  0  0  0
   75.7726   38.8952   39.9150 C   0  0  0  0  0  0  0  0  0  0  0  0
   79.0151   41.8749   43.5688 H   0  0  0  0  0  0  0  0  0  0  0  0
   78.9262   44.6758   39.4261 H   0  0  0  0  0  0  0  0  0  0  0  0
   80.4486   45.2492   41.3189 H   0  0  0  0  0  0  0  0  0  0  0  0
   80.4910   43.8735   43.3600 H   0  0  0  0  0  0  0  0  0  0  0  0
   75.8587   40.4530   38.4338 H   0  0  0  0  0  0  0  0  0  0  0  0
   72.3694   40.4464   39.8883 H   0  0  0  0  0  0  0  0  0  0  0  0
   74.6964   37.0799   39.5018 H   0  0  0  0  0  0  0  0  0  0  0  0
   74.8519   38.1471   38.0959 H   0  0  0  0  0  0  0  0  0  0  0  0
   76.7582   38.4736   39.6917 H   0  0  0  0  0  0  0  0  0  0  0  0
   75.6097   38.7761   40.9898 H   0  0  0  0  0  0  0  0  0  0  0  0
  1 20  1  0  0  0  0
  1  2  1  0  0  0  0
  1 11  2  0  0  0  0
  2  3  1  0  0  0  0
  2  8  2  0  0  0  0
  3  4  2  0  0  0  0
  3  5  1  0  0  0  0
  5  6  1  0  0  0  0
 12  5  1  0  0  0  0
  6  7  2  0  0  0  0
  6  8  1  0  0  0  0
  8  9  1  0  0  0  0
  9 21  1  0  0  0  0
  9 10  2  0  0  0  0
 10 22  1  0  0  0  0
 10 11  1  0  0  0  0
 11 23  1  0  0  0  0
 12 24  1  0  0  0  0
 12 13  1  0  0  0  0
 12 19  1  0  0  0  0
 13 14  2  0  0  0  0
 13 15  1  0  0  0  0
 15 25  1  0  0  0  0
 15 16  1  0  0  0  0
 16 17  2  0  0  0  0
 16 18  1  0  0  0  0
 18 26  1  0  0  0  0
 18 27  1  0  0  0  0
 18 19  1  0  0  0  0
 19 28  1  0  0  0  0
 19 29  1  0  0  0  0
M  ZZC   1 c1
M  ZZC   2 c2
M  ZZC   3 c3
M  ZZC   4 o1
M  ZZC   5 n1
M  ZZC   6 c4
M  ZZC   7 o2
M  ZZC   8 c5
M  ZZC   9 c6
M  ZZC  10 c7
M  ZZC  11 c8
M  ZZC  12 c9
M  ZZC  13 c10
M  ZZC  14 o3
M  ZZC  15 n2
M  ZZC  16 c11
M  ZZC  17 o4
M  ZZC  18 c12
M  ZZC  19 c13
M  ZZC  20 h11
M  ZZC  21 h61
M  ZZC  22 h71
M  ZZC  23 h81
M  ZZC  24 h91
M  ZZC  25 h21
M  ZZC  26 h121
M  ZZC  27 h122
M  ZZC  28 h131
M  ZZC  29 h132
M  ZZM   1 37
M  ZZI   1 125
M  ZZM   2 37
M  ZZI   2 124
M  ZZM   3 3
M  ZZI   3 121
M  ZZM   4 7
M  ZZI   4 81
M  ZZM   5 10
M  ZZI   5 192
M  ZZM   6 3
M  ZZI   6 121
M  ZZM   7 7
M  ZZI   7 81
M  ZZM   8 37
M  ZZI   8 124
M  ZZM   9 37
M  ZZI   9 125
M  ZZM  10 37
M  ZZI  10 125
M  ZZM  11 37
M  ZZI  11 125
M  ZZM  12 1
M  ZZI  12 113
M  ZZM  13 3
M  ZZI  13 121
M  ZZM  14 7
M  ZZI  14 81
M  ZZM  15 10
M  ZZI  15 191
M  ZZM  16 3
M  ZZI  16 121
M  ZZM  17 7
M  ZZI  17 81
M  ZZM  18 1
M  ZZI  18 112
M  ZZM  19 1
M  ZZI  19 112
M  ZZM  20 5
M  ZZI  20 1
M  ZZM  21 5
M  ZZI  21 1
M  ZZM  22 5
M  ZZI  22 1
M  ZZM  23 5
M  ZZI  23 1
M  ZZM  24 5
M  ZZI  24 1
M  ZZM  25 28
M  ZZI  25 11
M  ZZM  26 5
M  ZZI  26 1
M  ZZM  27 5
M  ZZI  27 1
M  ZZM  28 5
M  ZZI  28 1
M  ZZM  29 5
M  ZZI  29 1
M  END
> <IX>
1

> <NAME>
Cereblon_5P9J_3.pdb

> <Score>
-19.418256

> <Natom>
29

> <Nflex>
1

> <Hbond>
-3.370581

> <Hphob>
-3.548903

> <VwInt>
-22.700828

> <Dsolv>
12.010375

> <SolEl>
5.577905

> <Eintl>
1.497849

> <RecConf>
ND

> <projPath>
Cereblon_maps/

> <NAME_>
Cereblon_5P9J_3.pdb

$$$$
