Cereblon_6VS3_19.pdb
  MOLSOFT 04032206293D

 31 33  0  0  1  0  0  0  0  0999 V2000
   49.5834   61.1770   45.8502 N   0  0  0  0  0  0  0  0  0  0  0  0
   48.8872   60.1352   46.4828 C   0  0  0  0  0  0  0  0  0  0  0  0
   48.5036   58.9828   45.8166 C   0  0  0  0  0  0  0  0  0  0  0  0
   48.8413   58.5430   44.4670 C   0  0  0  0  0  0  0  0  0  0  0  0
   49.4929   59.2111   43.6784 O   0  0  0  0  0  0  0  0  0  0  0  0
   48.3396   57.2640   44.3343 N   0  0  0  0  0  0  0  0  0  0  0  0
   47.7010   56.8644   45.4894 C   0  0  0  0  0  0  0  0  0  0  0  0
   47.1615   55.7987   45.7499 O   0  0  0  0  0  0  0  0  0  0  0  0
   47.8107   57.9806   46.4268 C   0  0  0  0  0  0  0  0  0  0  0  0
   47.3944   58.0703   47.7419 C   0  0  0  0  0  0  0  0  0  0  0  0
   47.7243   59.2365   48.4221 C   0  0  0  0  0  0  0  0  0  0  0  0
   48.4531   60.2518   47.8002 C   0  0  0  0  0  0  0  0  0  0  0  0
   48.5758   56.3715   43.1944 C   0  0  2  0  0  0  0  0  0  0  0  0
   49.9933   55.8222   43.2811 C   0  0  0  0  0  0  0  0  0  0  0  0
   50.6456   55.8220   44.3127 O   0  0  0  0  0  0  0  0  0  0  0  0
   50.5074   55.3015   42.1185 N   0  0  0  0  0  0  0  0  0  0  0  0
   50.0027   55.4214   40.8492 C   0  0  0  0  0  0  0  0  0  0  0  0
   50.6207   55.0446   39.8686 O   0  0  0  0  0  0  0  0  0  0  0  0
   48.6266   56.0238   40.7358 C   0  0  0  0  0  0  0  0  0  0  0  0
   48.3760   57.0328   41.8384 C   0  0  0  0  0  0  0  0  0  0  0  0
   50.1577   61.7650   46.4515 H   0  0  0  0  0  0  0  0  0  0  0  0
   49.9350   61.0067   44.9046 H   0  0  0  0  0  0  0  0  0  0  0  0
   46.8523   57.2639   48.2264 H   0  0  0  0  0  0  0  0  0  0  0  0
   47.4234   59.3551   49.4586 H   0  0  0  0  0  0  0  0  0  0  0  0
   48.7008   61.1449   48.3657 H   0  0  0  0  0  0  0  0  0  0  0  0
   47.9008   55.5135   43.2928 H   0  0  0  0  0  0  0  0  0  0  0  0
   51.4230   54.8733   42.1898 H   0  0  0  0  0  0  0  0  0  0  0  0
   48.5582   56.5248   39.7678 H   0  0  0  0  0  0  0  0  0  0  0  0
   47.8896   55.2139   40.7604 H   0  0  0  0  0  0  0  0  0  0  0  0
   49.0743   57.8645   41.7127 H   0  0  0  0  0  0  0  0  0  0  0  0
   47.3638   57.4414   41.7533 H   0  0  0  0  0  0  0  0  0  0  0  0
  1  2  1  0  0  0  0
  1 21  1  0  0  0  0
  1 22  1  0  0  0  0
  2  3  1  0  0  0  0
  2 12  2  0  0  0  0
  3  9  2  0  0  0  0
  3  4  1  0  0  0  0
  4  5  2  0  0  0  0
  4  6  1  0  0  0  0
  6  7  1  0  0  0  0
 13  6  1  0  0  0  0
  7  8  2  0  0  0  0
  7  9  1  0  0  0  0
  9 10  1  0  0  0  0
 10 23  1  0  0  0  0
 10 11  2  0  0  0  0
 11 12  1  0  0  0  0
 11 24  1  0  0  0  0
 12 25  1  0  0  0  0
 13 26  1  0  0  0  0
 13 14  1  0  0  0  0
 13 20  1  0  0  0  0
 14 15  2  0  0  0  0
 14 16  1  0  0  0  0
 16 27  1  0  0  0  0
 16 17  1  0  0  0  0
 17 18  2  0  0  0  0
 17 19  1  0  0  0  0
 19 28  1  0  0  0  0
 19 29  1  0  0  0  0
 19 20  1  0  0  0  0
 20 30  1  0  0  0  0
 20 31  1  0  0  0  0
M  ZZC   1 n1
M  ZZC   2 c1
M  ZZC   3 c2
M  ZZC   4 c3
M  ZZC   5 o1
M  ZZC   6 n2
M  ZZC   7 c4
M  ZZC   8 o2
M  ZZC   9 c5
M  ZZC  10 c6
M  ZZC  11 c7
M  ZZC  12 c8
M  ZZC  13 c9
M  ZZC  14 c10
M  ZZC  15 o3
M  ZZC  16 n3
M  ZZC  17 c11
M  ZZC  18 o4
M  ZZC  19 c12
M  ZZC  20 c13
M  ZZC  21 h11
M  ZZC  22 h12
M  ZZC  23 h61
M  ZZC  24 h71
M  ZZC  25 h81
M  ZZC  26 h91
M  ZZC  27 h31
M  ZZC  28 h121
M  ZZC  29 h122
M  ZZC  30 h131
M  ZZC  31 h132
M  ZZM   1 40
M  ZZI   1 224
M  ZZM   2 37
M  ZZI   2 124
M  ZZM   3 37
M  ZZI   3 124
M  ZZM   4 3
M  ZZI   4 121
M  ZZM   5 7
M  ZZI   5 81
M  ZZM   6 10
M  ZZI   6 192
M  ZZM   7 3
M  ZZI   7 121
M  ZZM   8 7
M  ZZI   8 81
M  ZZM   9 37
M  ZZI   9 124
M  ZZM  10 37
M  ZZI  10 125
M  ZZM  11 37
M  ZZI  11 125
M  ZZM  12 37
M  ZZI  12 125
M  ZZM  13 1
M  ZZI  13 113
M  ZZM  14 3
M  ZZI  14 121
M  ZZM  15 7
M  ZZI  15 81
M  ZZM  16 10
M  ZZI  16 191
M  ZZM  17 3
M  ZZI  17 121
M  ZZM  18 7
M  ZZI  18 81
M  ZZM  19 1
M  ZZI  19 112
M  ZZM  20 1
M  ZZI  20 112
M  ZZM  21 28
M  ZZI  21 11
M  ZZM  22 28
M  ZZI  22 11
M  ZZM  23 5
M  ZZI  23 1
M  ZZM  24 5
M  ZZI  24 1
M  ZZM  25 5
M  ZZI  25 1
M  ZZM  26 5
M  ZZI  26 1
M  ZZM  27 28
M  ZZI  27 11
M  ZZM  28 5
M  ZZI  28 1
M  ZZM  29 5
M  ZZI  29 1
M  ZZM  30 5
M  ZZI  30 1
M  ZZM  31 5
M  ZZI  31 1
M  END
> <IX>
1

> <NAME>
Cereblon_6VS3_19.pdb

> <Score>
-16.190038

> <Natom>
31

> <Nflex>
1

> <Hbond>
-6.045638

> <Hphob>
-2.497853

> <VwInt>
-16.88333

> <Dsolv>
15.638469

> <SolEl>
6.431224

> <Eintl>
1.814763

> <RecConf>
ND

> <projPath>
Cereblon_maps/

> <NAME_>
Cereblon_6VS3_19.pdb

$$$$
