Cereblon_5V9O_6.pdb
  MOLSOFT 04032206273D

 29 31  0  0  1  0  0  0  0  0999 V2000
   76.8149   38.1092   40.6538 C   0  0  0  0  0  0  0  0  0  0  0  0
   76.0735   39.1387   40.1033 C   0  0  0  0  0  0  0  0  0  0  0  0
   75.0720   39.1066   39.0365 C   0  0  0  0  0  0  0  0  0  0  0  0
   74.6714   38.0828   38.5021 O   0  0  0  0  0  0  0  0  0  0  0  0
   74.6777   40.4111   38.8347 N   0  0  0  0  0  0  0  0  0  0  0  0
   75.2548   41.2403   39.7703 C   0  0  0  0  0  0  0  0  0  0  0  0
   75.0350   42.4237   39.9665 O   0  0  0  0  0  0  0  0  0  0  0  0
   76.1857   40.4226   40.5421 C   0  0  0  0  0  0  0  0  0  0  0  0
   77.0513   40.7824   41.5592 C   0  0  0  0  0  0  0  0  0  0  0  0
   77.7976   39.7615   42.1343 C   0  0  0  0  0  0  0  0  0  0  0  0
   77.6838   38.4449   41.6864 C   0  0  0  0  0  0  0  0  0  0  0  0
   73.6345   40.8167   37.8882 C   0  0  2  0  0  0  0  0  0  0  0  0
   74.0588   42.0544   37.0987 C   0  0  0  0  0  0  0  0  0  0  0  0
   75.2262   42.3336   36.8635 O   0  0  0  0  0  0  0  0  0  0  0  0
   73.0335   42.8246   36.5992 N   0  0  0  0  0  0  0  0  0  0  0  0
   71.6790   42.6686   36.7692 C   0  0  0  0  0  0  0  0  0  0  0  0
   70.8726   43.4530   36.2925 O   0  0  0  0  0  0  0  0  0  0  0  0
   71.2505   41.4425   37.5385 C   0  0  0  0  0  0  0  0  0  0  0  0
   72.2913   41.0386   38.5712 C   0  0  0  0  0  0  0  0  0  0  0  0
   76.7215   37.0862   40.2995 H   0  0  0  0  0  0  0  0  0  0  0  0
   77.1462   41.8086   41.9003 H   0  0  0  0  0  0  0  0  0  0  0  0
   78.4775   39.9934   42.9494 H   0  0  0  0  0  0  0  0  0  0  0  0
   78.2832   37.6696   42.1546 H   0  0  0  0  0  0  0  0  0  0  0  0
   73.5217   40.0061   37.1593 H   0  0  0  0  0  0  0  0  0  0  0  0
   73.3114   43.6404   36.0710 H   0  0  0  0  0  0  0  0  0  0  0  0
   70.3009   41.6606   38.0363 H   0  0  0  0  0  0  0  0  0  0  0  0
   71.0793   40.6331   36.8214 H   0  0  0  0  0  0  0  0  0  0  0  0
   71.9700   40.1249   39.0823 H   0  0  0  0  0  0  0  0  0  0  0  0
   72.3748   41.8082   39.3449 H   0  0  0  0  0  0  0  0  0  0  0  0
  1 20  1  0  0  0  0
  1  2  1  0  0  0  0
  1 11  2  0  0  0  0
  2  3  1  0  0  0  0
  2  8  2  0  0  0  0
  3  4  2  0  0  0  0
  3  5  1  0  0  0  0
  5  6  1  0  0  0  0
 12  5  1  0  0  0  0
  6  7  2  0  0  0  0
  6  8  1  0  0  0  0
  8  9  1  0  0  0  0
  9 21  1  0  0  0  0
  9 10  2  0  0  0  0
 10 22  1  0  0  0  0
 10 11  1  0  0  0  0
 11 23  1  0  0  0  0
 12 24  1  0  0  0  0
 12 13  1  0  0  0  0
 12 19  1  0  0  0  0
 13 14  2  0  0  0  0
 13 15  1  0  0  0  0
 15 25  1  0  0  0  0
 15 16  1  0  0  0  0
 16 17  2  0  0  0  0
 16 18  1  0  0  0  0
 18 26  1  0  0  0  0
 18 27  1  0  0  0  0
 18 19  1  0  0  0  0
 19 28  1  0  0  0  0
 19 29  1  0  0  0  0
M  ZZC   1 c1
M  ZZC   2 c2
M  ZZC   3 c3
M  ZZC   4 o1
M  ZZC   5 n1
M  ZZC   6 c4
M  ZZC   7 o2
M  ZZC   8 c5
M  ZZC   9 c6
M  ZZC  10 c7
M  ZZC  11 c8
M  ZZC  12 c9
M  ZZC  13 c10
M  ZZC  14 o3
M  ZZC  15 n2
M  ZZC  16 c11
M  ZZC  17 o4
M  ZZC  18 c12
M  ZZC  19 c13
M  ZZC  20 h11
M  ZZC  21 h61
M  ZZC  22 h71
M  ZZC  23 h81
M  ZZC  24 h91
M  ZZC  25 h21
M  ZZC  26 h121
M  ZZC  27 h122
M  ZZC  28 h131
M  ZZC  29 h132
M  ZZM   1 37
M  ZZI   1 125
M  ZZM   2 37
M  ZZI   2 124
M  ZZM   3 3
M  ZZI   3 121
M  ZZM   4 7
M  ZZI   4 81
M  ZZM   5 10
M  ZZI   5 192
M  ZZM   6 3
M  ZZI   6 121
M  ZZM   7 7
M  ZZI   7 81
M  ZZM   8 37
M  ZZI   8 124
M  ZZM   9 37
M  ZZI   9 125
M  ZZM  10 37
M  ZZI  10 125
M  ZZM  11 37
M  ZZI  11 125
M  ZZM  12 1
M  ZZI  12 113
M  ZZM  13 3
M  ZZI  13 121
M  ZZM  14 7
M  ZZI  14 81
M  ZZM  15 10
M  ZZI  15 191
M  ZZM  16 3
M  ZZI  16 121
M  ZZM  17 7
M  ZZI  17 81
M  ZZM  18 1
M  ZZI  18 112
M  ZZM  19 1
M  ZZI  19 112
M  ZZM  20 5
M  ZZI  20 1
M  ZZM  21 5
M  ZZI  21 1
M  ZZM  22 5
M  ZZI  22 1
M  ZZM  23 5
M  ZZI  23 1
M  ZZM  24 5
M  ZZI  24 1
M  ZZM  25 28
M  ZZI  25 11
M  ZZM  26 5
M  ZZI  26 1
M  ZZM  27 5
M  ZZI  27 1
M  ZZM  28 5
M  ZZI  28 1
M  ZZM  29 5
M  ZZI  29 1
M  END
> <IX>
1

> <NAME>
Cereblon_5V9O_6.pdb

> <Score>
-17.207873

> <Natom>
29

> <Nflex>
1

> <Hbond>
-4.51261

> <Hphob>
-3.556763

> <VwInt>
-21.309254

> <Dsolv>
14.641076

> <SolEl>
7.513993

> <Eintl>
2.268791

> <RecConf>
ND

> <projPath>
Cereblon_maps/

> <NAME_>
Cereblon_5V9O_6.pdb

$$$$
