Cereblon_2VTI_13.pdb
  MOLSOFT 04032206203D

 31 33  0  0  1  0  0  0  0  0999 V2000
   78.8143   41.6783   43.8184 N   0  0  0  0  0  0  0  0  0  0  0  0
   78.9076   42.4225   42.6318 C   0  0  0  0  0  0  0  0  0  0  0  0
   78.1008   42.1575   41.5379 C   0  0  0  0  0  0  0  0  0  0  0  0
   77.1806   41.0463   41.3309 C   0  0  0  0  0  0  0  0  0  0  0  0
   76.9997   40.1637   42.1566 O   0  0  0  0  0  0  0  0  0  0  0  0
   76.6456   41.2107   40.0686 N   0  0  0  0  0  0  0  0  0  0  0  0
   77.1661   42.3316   39.4547 C   0  0  0  0  0  0  0  0  0  0  0  0
   76.9529   42.7543   38.3258 O   0  0  0  0  0  0  0  0  0  0  0  0
   78.0976   42.9271   40.4141 C   0  0  0  0  0  0  0  0  0  0  0  0
   78.9082   44.0370   40.2934 C   0  0  0  0  0  0  0  0  0  0  0  0
   79.7243   44.3370   41.3779 C   0  0  0  0  0  0  0  0  0  0  0  0
   79.7122   43.5538   42.5337 C   0  0  0  0  0  0  0  0  0  0  0  0
   75.6259   40.3743   39.4319 C   0  0  2  0  0  0  0  0  0  0  0  0
   74.2547   40.9535   39.7362 C   0  0  0  0  0  0  0  0  0  0  0  0
   74.0845   42.1339   39.9924 O   0  0  0  0  0  0  0  0  0  0  0  0
   73.1941   40.0881   39.6236 N   0  0  0  0  0  0  0  0  0  0  0  0
   73.2183   38.7500   39.3132 C   0  0  0  0  0  0  0  0  0  0  0  0
   72.1932   38.0970   39.2069 O   0  0  0  0  0  0  0  0  0  0  0  0
   74.5809   38.1508   39.0583 C   0  0  0  0  0  0  0  0  0  0  0  0
   75.6589   38.9001   39.8216 C   0  0  0  0  0  0  0  0  0  0  0  0
   79.5557   41.7611   44.5104 H   0  0  0  0  0  0  0  0  0  0  0  0
   78.3250   40.7829   43.7758 H   0  0  0  0  0  0  0  0  0  0  0  0
   78.8993   44.6451   39.3965 H   0  0  0  0  0  0  0  0  0  0  0  0
   80.3724   45.2053   41.3339 H   0  0  0  0  0  0  0  0  0  0  0  0
   80.3439   43.8359   43.3705 H   0  0  0  0  0  0  0  0  0  0  0  0
   75.7608   40.4738   38.3536 H   0  0  0  0  0  0  0  0  0  0  0  0
   72.2792   40.4906   39.7852 H   0  0  0  0  0  0  0  0  0  0  0  0
   74.5667   37.1032   39.3757 H   0  0  0  0  0  0  0  0  0  0  0  0
   74.7683   38.1762   37.9804 H   0  0  0  0  0  0  0  0  0  0  0  0
   75.4741   38.7729   40.8922 H   0  0  0  0  0  0  0  0  0  0  0  0
   76.6436   38.4690   39.6142 H   0  0  0  0  0  0  0  0  0  0  0  0
  1  2  1  0  0  0  0
  1 21  1  0  0  0  0
  1 22  1  0  0  0  0
  2  3  1  0  0  0  0
  2 12  2  0  0  0  0
  3  9  2  0  0  0  0
  3  4  1  0  0  0  0
  4  5  2  0  0  0  0
  4  6  1  0  0  0  0
  6  7  1  0  0  0  0
 13  6  1  0  0  0  0
  7  8  2  0  0  0  0
  7  9  1  0  0  0  0
  9 10  1  0  0  0  0
 10 23  1  0  0  0  0
 10 11  2  0  0  0  0
 11 12  1  0  0  0  0
 11 24  1  0  0  0  0
 12 25  1  0  0  0  0
 13 26  1  0  0  0  0
 13 14  1  0  0  0  0
 13 20  1  0  0  0  0
 14 15  2  0  0  0  0
 14 16  1  0  0  0  0
 16 27  1  0  0  0  0
 16 17  1  0  0  0  0
 17 18  2  0  0  0  0
 17 19  1  0  0  0  0
 19 28  1  0  0  0  0
 19 29  1  0  0  0  0
 19 20  1  0  0  0  0
 20 30  1  0  0  0  0
 20 31  1  0  0  0  0
M  ZZC   1 n1
M  ZZC   2 c1
M  ZZC   3 c2
M  ZZC   4 c3
M  ZZC   5 o1
M  ZZC   6 n2
M  ZZC   7 c4
M  ZZC   8 o2
M  ZZC   9 c5
M  ZZC  10 c6
M  ZZC  11 c7
M  ZZC  12 c8
M  ZZC  13 c9
M  ZZC  14 c10
M  ZZC  15 o3
M  ZZC  16 n3
M  ZZC  17 c11
M  ZZC  18 o4
M  ZZC  19 c12
M  ZZC  20 c13
M  ZZC  21 h11
M  ZZC  22 h12
M  ZZC  23 h61
M  ZZC  24 h71
M  ZZC  25 h81
M  ZZC  26 h91
M  ZZC  27 h31
M  ZZC  28 h121
M  ZZC  29 h122
M  ZZC  30 h131
M  ZZC  31 h132
M  ZZM   1 40
M  ZZI   1 224
M  ZZM   2 37
M  ZZI   2 124
M  ZZM   3 37
M  ZZI   3 124
M  ZZM   4 3
M  ZZI   4 121
M  ZZM   5 7
M  ZZI   5 81
M  ZZM   6 10
M  ZZI   6 192
M  ZZM   7 3
M  ZZI   7 121
M  ZZM   8 7
M  ZZI   8 81
M  ZZM   9 37
M  ZZI   9 124
M  ZZM  10 37
M  ZZI  10 125
M  ZZM  11 37
M  ZZI  11 125
M  ZZM  12 37
M  ZZI  12 125
M  ZZM  13 1
M  ZZI  13 113
M  ZZM  14 3
M  ZZI  14 121
M  ZZM  15 7
M  ZZI  15 81
M  ZZM  16 10
M  ZZI  16 191
M  ZZM  17 3
M  ZZI  17 121
M  ZZM  18 7
M  ZZI  18 81
M  ZZM  19 1
M  ZZI  19 112
M  ZZM  20 1
M  ZZI  20 112
M  ZZM  21 28
M  ZZI  21 11
M  ZZM  22 28
M  ZZI  22 11
M  ZZM  23 5
M  ZZI  23 1
M  ZZM  24 5
M  ZZI  24 1
M  ZZM  25 5
M  ZZI  25 1
M  ZZM  26 5
M  ZZI  26 1
M  ZZM  27 28
M  ZZI  27 11
M  ZZM  28 5
M  ZZI  28 1
M  ZZM  29 5
M  ZZI  29 1
M  ZZM  30 5
M  ZZI  30 1
M  ZZM  31 5
M  ZZI  31 1
M  END
> <IX>
1

> <NAME>
Cereblon_2VTI_13.pdb

> <Score>
-18.465132

> <Natom>
31

> <Nflex>
1

> <Hbond>
-3.68944

> <Hphob>
-3.530555

> <VwInt>
-24.328431

> <Dsolv>
15.08047

> <SolEl>
7.01744

> <Eintl>
1.701985

> <RecConf>
ND

> <projPath>
Cereblon_maps/

> <NAME_>
Cereblon_2VTI_13.pdb

$$$$
