Cereblon_6VS3_30.pdb
  MOLSOFT 04032206293D

 31 33  0  0  1  0  0  0  0  0999 V2000
   77.6159   41.8879   41.9201 N   0  0  0  0  0  0  0  0  0  0  0  0
   77.2672   40.5820   41.5429 C   0  0  0  0  0  0  0  0  0  0  0  0
   76.3386   40.2966   40.5488 C   0  0  0  0  0  0  0  0  0  0  0  0
   75.4334   41.1728   39.7970 C   0  0  0  0  0  0  0  0  0  0  0  0
   75.2832   42.3652   40.0151 O   0  0  0  0  0  0  0  0  0  0  0  0
   74.7822   40.3773   38.8788 N   0  0  0  0  0  0  0  0  0  0  0  0
   75.0915   39.0519   39.0774 C   0  0  0  0  0  0  0  0  0  0  0  0
   74.6229   38.0571   38.5422 O   0  0  0  0  0  0  0  0  0  0  0  0
   76.1126   39.0203   40.1245 C   0  0  0  0  0  0  0  0  0  0  0  0
   76.7751   37.9297   40.6529 C   0  0  0  0  0  0  0  0  0  0  0  0
   77.6981   38.1878   41.6541 C   0  0  0  0  0  0  0  0  0  0  0  0
   77.9399   39.4909   42.0843 C   0  0  0  0  0  0  0  0  0  0  0  0
   73.7445   40.8302   37.9478 C   0  0  2  0  0  0  0  0  0  0  0  0
   74.1752   42.0692   37.1654 C   0  0  0  0  0  0  0  0  0  0  0  0
   75.3435   42.3420   36.9283 O   0  0  0  0  0  0  0  0  0  0  0  0
   73.1505   42.8391   36.6642 N   0  0  0  0  0  0  0  0  0  0  0  0
   71.7946   42.6578   36.7991 C   0  0  0  0  0  0  0  0  0  0  0  0
   70.9882   43.4037   36.2638 O   0  0  0  0  0  0  0  0  0  0  0  0
   71.3656   41.4559   37.6060 C   0  0  0  0  0  0  0  0  0  0  0  0
   72.4113   41.0646   38.6391 C   0  0  0  0  0  0  0  0  0  0  0  0
   78.1365   42.0348   42.7825 H   0  0  0  0  0  0  0  0  0  0  0  0
   77.1045   42.6797   41.5285 H   0  0  0  0  0  0  0  0  0  0  0  0
   76.5822   36.9195   40.3035 H   0  0  0  0  0  0  0  0  0  0  0  0
   78.2465   37.3658   42.1041 H   0  0  0  0  0  0  0  0  0  0  0  0
   78.6797   39.6561   42.8610 H   0  0  0  0  0  0  0  0  0  0  0  0
   73.6083   40.0332   37.2074 H   0  0  0  0  0  0  0  0  0  0  0  0
   73.4275   43.6482   36.1257 H   0  0  0  0  0  0  0  0  0  0  0  0
   70.4237   41.6952   38.1083 H   0  0  0  0  0  0  0  0  0  0  0  0
   71.1773   40.6302   36.9119 H   0  0  0  0  0  0  0  0  0  0  0  0
   72.5079   41.8437   39.4022 H   0  0  0  0  0  0  0  0  0  0  0  0
   72.0878   40.1598   39.1641 H   0  0  0  0  0  0  0  0  0  0  0  0
  1  2  1  0  0  0  0
  1 21  1  0  0  0  0
  1 22  1  0  0  0  0
  2  3  1  0  0  0  0
  2 12  2  0  0  0  0
  3  9  2  0  0  0  0
  3  4  1  0  0  0  0
  4  5  2  0  0  0  0
  4  6  1  0  0  0  0
  6  7  1  0  0  0  0
 13  6  1  0  0  0  0
  7  8  2  0  0  0  0
  7  9  1  0  0  0  0
  9 10  1  0  0  0  0
 10 23  1  0  0  0  0
 10 11  2  0  0  0  0
 11 12  1  0  0  0  0
 11 24  1  0  0  0  0
 12 25  1  0  0  0  0
 13 26  1  0  0  0  0
 13 14  1  0  0  0  0
 13 20  1  0  0  0  0
 14 15  2  0  0  0  0
 14 16  1  0  0  0  0
 16 27  1  0  0  0  0
 16 17  1  0  0  0  0
 17 18  2  0  0  0  0
 17 19  1  0  0  0  0
 19 28  1  0  0  0  0
 19 29  1  0  0  0  0
 19 20  1  0  0  0  0
 20 30  1  0  0  0  0
 20 31  1  0  0  0  0
M  ZZC   1 n1
M  ZZC   2 c1
M  ZZC   3 c2
M  ZZC   4 c3
M  ZZC   5 o1
M  ZZC   6 n2
M  ZZC   7 c4
M  ZZC   8 o2
M  ZZC   9 c5
M  ZZC  10 c6
M  ZZC  11 c7
M  ZZC  12 c8
M  ZZC  13 c9
M  ZZC  14 c10
M  ZZC  15 o3
M  ZZC  16 n3
M  ZZC  17 c11
M  ZZC  18 o4
M  ZZC  19 c12
M  ZZC  20 c13
M  ZZC  21 h11
M  ZZC  22 h12
M  ZZC  23 h61
M  ZZC  24 h71
M  ZZC  25 h81
M  ZZC  26 h91
M  ZZC  27 h31
M  ZZC  28 h121
M  ZZC  29 h122
M  ZZC  30 h131
M  ZZC  31 h132
M  ZZM   1 40
M  ZZI   1 224
M  ZZM   2 37
M  ZZI   2 124
M  ZZM   3 37
M  ZZI   3 124
M  ZZM   4 3
M  ZZI   4 121
M  ZZM   5 7
M  ZZI   5 81
M  ZZM   6 10
M  ZZI   6 192
M  ZZM   7 3
M  ZZI   7 121
M  ZZM   8 7
M  ZZI   8 81
M  ZZM   9 37
M  ZZI   9 124
M  ZZM  10 37
M  ZZI  10 125
M  ZZM  11 37
M  ZZI  11 125
M  ZZM  12 37
M  ZZI  12 125
M  ZZM  13 1
M  ZZI  13 113
M  ZZM  14 3
M  ZZI  14 121
M  ZZM  15 7
M  ZZI  15 81
M  ZZM  16 10
M  ZZI  16 191
M  ZZM  17 3
M  ZZI  17 121
M  ZZM  18 7
M  ZZI  18 81
M  ZZM  19 1
M  ZZI  19 112
M  ZZM  20 1
M  ZZI  20 112
M  ZZM  21 28
M  ZZI  21 11
M  ZZM  22 28
M  ZZI  22 11
M  ZZM  23 5
M  ZZI  23 1
M  ZZM  24 5
M  ZZI  24 1
M  ZZM  25 5
M  ZZI  25 1
M  ZZM  26 5
M  ZZI  26 1
M  ZZM  27 28
M  ZZI  27 11
M  ZZM  28 5
M  ZZI  28 1
M  ZZM  29 5
M  ZZI  29 1
M  ZZM  30 5
M  ZZI  30 1
M  ZZM  31 5
M  ZZI  31 1
M  END
> <IX>
1

> <NAME>
Cereblon_6VS3_30.pdb

> <Score>
-15.171065

> <Natom>
31

> <Nflex>
1

> <Hbond>
-4.147651

> <Hphob>
-3.528706

> <VwInt>
-23.230963

> <Dsolv>
17.30223

> <SolEl>
8.145111

> <Eintl>
3.275405

> <RecConf>
ND

> <projPath>
Cereblon_maps/

> <NAME_>
Cereblon_6VS3_30.pdb

$$$$
