Cereblon_5G0I_17.pdb
  MOLSOFT 04032206243D

 31 33  0  0  1  0  0  0  0  0999 V2000
   78.8139   41.6772   43.8088 N   0  0  0  0  0  0  0  0  0  0  0  0
   78.8941   42.4316   42.6284 C   0  0  0  0  0  0  0  0  0  0  0  0
   78.0928   42.1606   41.5325 C   0  0  0  0  0  0  0  0  0  0  0  0
   77.1718   41.0502   41.3263 C   0  0  0  0  0  0  0  0  0  0  0  0
   76.9894   40.1684   42.1527 O   0  0  0  0  0  0  0  0  0  0  0  0
   76.6346   41.2142   40.0649 N   0  0  0  0  0  0  0  0  0  0  0  0
   77.1600   42.3321   39.4490 C   0  0  0  0  0  0  0  0  0  0  0  0
   76.9518   42.7485   38.3168 O   0  0  0  0  0  0  0  0  0  0  0  0
   78.0909   42.9286   40.4079 C   0  0  0  0  0  0  0  0  0  0  0  0
   78.9056   44.0353   40.2841 C   0  0  0  0  0  0  0  0  0  0  0  0
   79.7246   44.3338   41.3664 C   0  0  0  0  0  0  0  0  0  0  0  0
   79.7108   43.5535   42.5242 C   0  0  0  0  0  0  0  0  0  0  0  0
   75.6166   40.3765   39.4272 C   0  0  2  0  0  0  0  0  0  0  0  0
   74.2456   40.9578   39.7268 C   0  0  0  0  0  0  0  0  0  0  0  0
   74.0771   42.1368   39.9900 O   0  0  0  0  0  0  0  0  0  0  0  0
   73.1835   40.0963   39.5996 N   0  0  0  0  0  0  0  0  0  0  0  0
   73.2079   38.7596   39.2833 C   0  0  0  0  0  0  0  0  0  0  0  0
   72.1818   38.1115   39.1576 O   0  0  0  0  0  0  0  0  0  0  0  0
   74.5719   38.1539   39.0502 C   0  0  0  0  0  0  0  0  0  0  0  0
   75.6458   38.9033   39.8193 C   0  0  0  0  0  0  0  0  0  0  0  0
   79.5318   41.7755   44.5236 H   0  0  0  0  0  0  0  0  0  0  0  0
   78.2705   40.8124   43.7957 H   0  0  0  0  0  0  0  0  0  0  0  0
   78.9007   44.6406   39.3853 H   0  0  0  0  0  0  0  0  0  0  0  0
   80.3781   45.1977   41.3184 H   0  0  0  0  0  0  0  0  0  0  0  0
   80.3481   43.8317   43.3581 H   0  0  0  0  0  0  0  0  0  0  0  0
   75.7552   40.4745   38.3493 H   0  0  0  0  0  0  0  0  0  0  0  0
   72.2681   40.5010   39.7527 H   0  0  0  0  0  0  0  0  0  0  0  0
   74.5491   37.1079   39.3723 H   0  0  0  0  0  0  0  0  0  0  0  0
   74.7704   38.1724   37.9742 H   0  0  0  0  0  0  0  0  0  0  0  0
   75.4547   38.7788   40.8892 H   0  0  0  0  0  0  0  0  0  0  0  0
   76.6314   38.4712   39.6181 H   0  0  0  0  0  0  0  0  0  0  0  0
  1  2  1  0  0  0  0
  1 21  1  0  0  0  0
  1 22  1  0  0  0  0
  2  3  1  0  0  0  0
  2 12  2  0  0  0  0
  3  9  2  0  0  0  0
  3  4  1  0  0  0  0
  4  5  2  0  0  0  0
  4  6  1  0  0  0  0
  6  7  1  0  0  0  0
 13  6  1  0  0  0  0
  7  8  2  0  0  0  0
  7  9  1  0  0  0  0
  9 10  1  0  0  0  0
 10 23  1  0  0  0  0
 10 11  2  0  0  0  0
 11 12  1  0  0  0  0
 11 24  1  0  0  0  0
 12 25  1  0  0  0  0
 13 26  1  0  0  0  0
 13 14  1  0  0  0  0
 13 20  1  0  0  0  0
 14 15  2  0  0  0  0
 14 16  1  0  0  0  0
 16 27  1  0  0  0  0
 16 17  1  0  0  0  0
 17 18  2  0  0  0  0
 17 19  1  0  0  0  0
 19 28  1  0  0  0  0
 19 29  1  0  0  0  0
 19 20  1  0  0  0  0
 20 30  1  0  0  0  0
 20 31  1  0  0  0  0
M  ZZC   1 n1
M  ZZC   2 c1
M  ZZC   3 c2
M  ZZC   4 c3
M  ZZC   5 o1
M  ZZC   6 n2
M  ZZC   7 c4
M  ZZC   8 o2
M  ZZC   9 c5
M  ZZC  10 c6
M  ZZC  11 c7
M  ZZC  12 c8
M  ZZC  13 c9
M  ZZC  14 c10
M  ZZC  15 o3
M  ZZC  16 n3
M  ZZC  17 c11
M  ZZC  18 o4
M  ZZC  19 c12
M  ZZC  20 c13
M  ZZC  21 h11
M  ZZC  22 h12
M  ZZC  23 h61
M  ZZC  24 h71
M  ZZC  25 h81
M  ZZC  26 h91
M  ZZC  27 h31
M  ZZC  28 h121
M  ZZC  29 h122
M  ZZC  30 h131
M  ZZC  31 h132
M  ZZM   1 40
M  ZZI   1 224
M  ZZM   2 37
M  ZZI   2 124
M  ZZM   3 37
M  ZZI   3 124
M  ZZM   4 3
M  ZZI   4 121
M  ZZM   5 7
M  ZZI   5 81
M  ZZM   6 10
M  ZZI   6 192
M  ZZM   7 3
M  ZZI   7 121
M  ZZM   8 7
M  ZZI   8 81
M  ZZM   9 37
M  ZZI   9 124
M  ZZM  10 37
M  ZZI  10 125
M  ZZM  11 37
M  ZZI  11 125
M  ZZM  12 37
M  ZZI  12 125
M  ZZM  13 1
M  ZZI  13 113
M  ZZM  14 3
M  ZZI  14 121
M  ZZM  15 7
M  ZZI  15 81
M  ZZM  16 10
M  ZZI  16 191
M  ZZM  17 3
M  ZZI  17 121
M  ZZM  18 7
M  ZZI  18 81
M  ZZM  19 1
M  ZZI  19 112
M  ZZM  20 1
M  ZZI  20 112
M  ZZM  21 28
M  ZZI  21 11
M  ZZM  22 28
M  ZZI  22 11
M  ZZM  23 5
M  ZZI  23 1
M  ZZM  24 5
M  ZZI  24 1
M  ZZM  25 5
M  ZZI  25 1
M  ZZM  26 5
M  ZZI  26 1
M  ZZM  27 28
M  ZZI  27 11
M  ZZM  28 5
M  ZZI  28 1
M  ZZM  29 5
M  ZZI  29 1
M  ZZM  30 5
M  ZZI  30 1
M  ZZM  31 5
M  ZZI  31 1
M  END
> <IX>
1

> <NAME>
Cereblon_5G0I_17.pdb

> <Score>
-18.363846

> <Natom>
31

> <Nflex>
1

> <Hbond>
-3.689256

> <Hphob>
-3.544931

> <VwInt>
-24.268855

> <Dsolv>
15.38406

> <SolEl>
6.720272

> <Eintl>
1.734177

> <RecConf>
ND

> <projPath>
Cereblon_maps/

> <NAME_>
Cereblon_5G0I_17.pdb

$$$$
