cIAP1_3CBS_1.pdb
  MOLSOFT 04032206433D

 50 50  0  0  1  0  0  0  0  0999 V2000
   17.3504   44.7087    5.7805 O   0  0  0  0  0  0  0  0  0  0  0  0
   16.5835   45.4475    6.3838 C   0  0  0  0  0  0  0  0  0  0  0  0
   16.5113   46.8077    6.2177 O   0  0  0  0  0  0  0  0  0  0  0  0
   17.4704   47.3316    5.3036 C   0  0  0  0  0  0  0  0  0  0  0  0
   15.5642   44.9837    7.4152 C   0  0  1  0  0  0  0  0  0  0  0  0
   15.0018   46.1882    8.0249 N   0  0  0  0  0  0  0  0  0  0  0  0
   14.5402   46.2030    9.3249 C   0  0  0  0  0  0  0  0  0  0  0  0
   14.3978   45.1907    9.9918 O   0  0  0  0  0  0  0  0  0  0  0  0
   14.3027   47.6056    9.8717 C   0  0  1  0  0  0  0  0  0  0  0  0
   13.4417   47.6420   11.0194 O   0  0  0  0  0  0  0  0  0  0  0  0
   15.6745   48.2012   10.2532 C   0  0  2  0  0  0  0  0  0  0  0  0
   16.1348   47.5904   11.5558 N   0  3  0  0  0  0  0  0  0  0  0  0
   15.6183   49.7294   10.4214 C   0  0  0  0  0  0  0  0  0  0  0  0
   16.9902   50.3510   10.3379 C   0  0  0  0  0  0  0  0  0  0  0  0
   17.7084   50.6638   11.4880 C   0  0  0  0  0  0  0  0  0  0  0  0
   18.9840   51.1914   11.3960 C   0  0  0  0  0  0  0  0  0  0  0  0
   19.5578   51.4225   10.1613 C   0  0  0  0  0  0  0  0  0  0  0  0
   18.8493   51.1313    9.0117 C   0  0  0  0  0  0  0  0  0  0  0  0
   17.5773   50.5933    9.0983 C   0  0  0  0  0  0  0  0  0  0  0  0
   14.4851   44.1083    6.7626 C   0  0  0  0  0  0  0  0  0  0  0  0
   14.8166   42.6084    6.8399 C   0  0  0  0  0  0  0  0  0  0  0  0
   13.9762   41.8182    5.8407 C   0  0  0  0  0  0  0  0  0  0  0  0
   14.5885   42.0561    8.2477 C   0  0  0  0  0  0  0  0  0  0  0  0
   18.4690   47.1187    5.6931 H   0  0  0  0  0  0  0  0  0  0  0  0
   17.3592   48.4160    5.2011 H   0  0  0  0  0  0  0  0  0  0  0  0
   17.3642   46.8362    4.3364 H   0  0  0  0  0  0  0  0  0  0  0  0
   16.1052   44.4486    8.1979 H   0  0  0  0  0  0  0  0  0  0  0  0
   15.0357   47.0477    7.4812 H   0  0  0  0  0  0  0  0  0  0  0  0
   13.8308   48.2020    9.0830 H   0  0  0  0  0  0  0  0  0  0  0  0
   12.5887   47.2404   10.7689 H   0  0  0  0  0  0  0  0  0  0  0  0
   16.4324   47.9252    9.5125 H   0  0  0  0  0  0  0  0  0  0  0  0
   15.4868   47.8321   12.3190 H   0  0  0  0  0  0  0  0  0  0  0  0
   17.0818   47.8880   11.8385 H   0  0  0  0  0  0  0  0  0  0  0  0
   16.1388   46.5642   11.5129 H   0  0  0  0  0  0  0  0  0  0  0  0
   15.0020   50.1733    9.6320 H   0  0  0  0  0  0  0  0  0  0  0  0
   15.1341   50.0072   11.3646 H   0  0  0  0  0  0  0  0  0  0  0  0
   17.2833   50.4930   12.4724 H   0  0  0  0  0  0  0  0  0  0  0  0
   19.5388   51.4256   12.2977 H   0  0  0  0  0  0  0  0  0  0  0  0
   20.5601   51.8342   10.0961 H   0  0  0  0  0  0  0  0  0  0  0  0
   19.2960   51.3170    8.0399 H   0  0  0  0  0  0  0  0  0  0  0  0
   17.0442   50.3607    8.1813 H   0  0  0  0  0  0  0  0  0  0  0  0
   13.5136   44.2833    7.2383 H   0  0  0  0  0  0  0  0  0  0  0  0
   14.3650   44.4061    5.7149 H   0  0  0  0  0  0  0  0  0  0  0  0
   15.8685   42.4602    6.5757 H   0  0  0  0  0  0  0  0  0  0  0  0
   12.9080   41.9365    6.0470 H   0  0  0  0  0  0  0  0  0  0  0  0
   14.2048   40.7496    5.8970 H   0  0  0  0  0  0  0  0  0  0  0  0
   14.1585   42.1498    4.8136 H   0  0  0  0  0  0  0  0  0  0  0  0
   15.2345   42.5429    8.9809 H   0  0  0  0  0  0  0  0  0  0  0  0
   14.8035   40.9853    8.2867 H   0  0  0  0  0  0  0  0  0  0  0  0
   13.5528   42.1977    8.5719 H   0  0  0  0  0  0  0  0  0  0  0  0
  2  1  2  0  0  0  0
  2  3  1  0  0  0  0
  5  2  1  0  0  0  0
  3  4  1  0  0  0  0
  4 24  1  0  0  0  0
  4 25  1  0  0  0  0
  4 26  1  0  0  0  0
  5 27  1  0  0  0  0
  5 20  1  0  0  0  0
  5  6  1  0  0  0  0
  6 28  1  0  0  0  0
  6  7  1  0  0  0  0
  7  8  2  0  0  0  0
  9  7  1  0  0  0  0
  9 29  1  0  0  0  0
  9 10  1  0  0  0  0
  9 11  1  0  0  0  0
 10 30  1  0  0  0  0
 11 31  1  0  0  0  0
 11 12  1  0  0  0  0
 11 13  1  0  0  0  0
 12 32  1  0  0  0  0
 12 33  1  0  0  0  0
 12 34  1  0  0  0  0
 13 35  1  0  0  0  0
 13 36  1  0  0  0  0
 13 14  1  0  0  0  0
 14 19  2  0  0  0  0
 14 15  1  0  0  0  0
 15 16  2  0  0  0  0
 15 37  1  0  0  0  0
 16 17  1  0  0  0  0
 16 38  1  0  0  0  0
 17 18  2  0  0  0  0
 17 39  1  0  0  0  0
 18 19  1  0  0  0  0
 18 40  1  0  0  0  0
 19 41  1  0  0  0  0
 20 42  1  0  0  0  0
 20 43  1  0  0  0  0
 20 21  1  0  0  0  0
 21 44  1  0  0  0  0
 21 23  1  0  0  0  0
 21 22  1  0  0  0  0
 22 45  1  0  0  0  0
 22 46  1  0  0  0  0
 22 47  1  0  0  0  0
 23 48  1  0  0  0  0
 23 49  1  0  0  0  0
 23 50  1  0  0  0  0
M  ZZC   1 o1
M  ZZC   2 c1
M  ZZC   3 o2
M  ZZC   4 c2
M  ZZC   5 c3
M  ZZC   6 n1
M  ZZC   7 c4
M  ZZC   8 o3
M  ZZC   9 c5
M  ZZC  10 o4
M  ZZC  11 c6
M  ZZC  12 n2
M  ZZC  13 c7
M  ZZC  14 c8
M  ZZC  15 c9
M  ZZC  16 c10
M  ZZC  17 c11
M  ZZC  18 c12
M  ZZC  19 c13
M  ZZC  20 c14
M  ZZC  21 c15
M  ZZC  22 c16
M  ZZC  23 c17
M  ZZC  24 h21
M  ZZC  25 h22
M  ZZC  26 h23
M  ZZC  27 h31
M  ZZC  28 h11
M  ZZC  29 h51
M  ZZC  30 h41
M  ZZC  31 h61
M  ZZC  32 h01
M  ZZC  33 h02
M  ZZC  34 h03
M  ZZC  35 h71
M  ZZC  36 h72
M  ZZC  37 h91
M  ZZC  38 h101
M  ZZC  39 h111
M  ZZC  40 h121
M  ZZC  41 h131
M  ZZC  42 h141
M  ZZC  43 h142
M  ZZC  44 h151
M  ZZC  45 h161
M  ZZC  46 h162
M  ZZC  47 h163
M  ZZC  48 h171
M  ZZC  49 h172
M  ZZC  50 h173
M  ZZM   1 7
M  ZZI   1 82
M  ZZM   2 3
M  ZZI   2 123
M  ZZM   3 6
M  ZZI   3 65
M  ZZM   4 1
M  ZZI   4 111
M  ZZM   5 1
M  ZZI   5 113
M  ZZM   6 10
M  ZZI   6 211
M  ZZM   7 3
M  ZZI   7 121
M  ZZM   8 7
M  ZZI   8 81
M  ZZM   9 1
M  ZZI   9 113
M  ZZM  10 6
M  ZZI  10 60
M  ZZM  11 1
M  ZZI  11 113
M  ZZM  12 34
M  ZZI  12 231
M  ZZM  13 1
M  ZZI  13 112
M  ZZM  14 37
M  ZZI  14 124
M  ZZM  15 37
M  ZZI  15 125
M  ZZM  16 37
M  ZZI  16 125
M  ZZM  17 37
M  ZZI  17 125
M  ZZM  18 37
M  ZZI  18 125
M  ZZM  19 37
M  ZZI  19 125
M  ZZM  20 1
M  ZZI  20 112
M  ZZM  21 1
M  ZZI  21 113
M  ZZM  22 1
M  ZZI  22 111
M  ZZM  23 1
M  ZZI  23 111
M  ZZM  24 5
M  ZZI  24 1
M  ZZM  25 5
M  ZZI  25 1
M  ZZM  26 5
M  ZZI  26 1
M  ZZM  27 5
M  ZZI  27 1
M  ZZM  28 28
M  ZZI  28 11
M  ZZM  29 5
M  ZZI  29 1
M  ZZM  30 21
M  ZZI  30 20
M  ZZM  31 5
M  ZZI  31 1
M  ZZM  32 36
M  ZZI  32 17
M  ZZM  33 36
M  ZZI  33 17
M  ZZM  34 36
M  ZZI  34 17
M  ZZM  35 5
M  ZZI  35 1
M  ZZM  36 5
M  ZZI  36 1
M  ZZM  37 5
M  ZZI  37 1
M  ZZM  38 5
M  ZZI  38 1
M  ZZM  39 5
M  ZZI  39 1
M  ZZM  40 5
M  ZZI  40 1
M  ZZM  41 5
M  ZZI  41 1
M  ZZM  42 5
M  ZZI  42 1
M  ZZM  43 5
M  ZZI  43 1
M  ZZM  44 5
M  ZZI  44 1
M  ZZM  45 5
M  ZZI  45 1
M  ZZM  46 5
M  ZZI  46 1
M  ZZM  47 5
M  ZZI  47 1
M  ZZM  48 5
M  ZZI  48 1
M  ZZM  49 5
M  ZZI  49 1
M  ZZM  50 5
M  ZZI  50 1
M  CHG  1  12   1
M  END
> <IX>
1

> <NAME>
cIAP1_3CBS_1.pdb

> <Score>
-9.080052

> <Natom>
50

> <Nflex>
9

> <Hbond>
-4.56995

> <Hphob>
-3.820091

> <VwInt>
-18.365448

> <Dsolv>
14.19924

> <SolEl>
7.167991

> <Eintl>
4.377544

> <RecConf>
ND

> <projPath>
cIAP1_maps/

> <NAME_>
cIAP1_3CBS_1.pdb

$$$$
