cIAP1_1T5Z_1.pdb
  MOLSOFT 04032206433D

 54 54  0  0  1  0  0  0  0  0999 V2000
   16.6883   48.5914   17.6016 O   0  0  0  0  0  0  0  0  0  0  0  0
   15.5986   49.0731   17.3344 C   0  0  0  0  0  0  0  0  0  0  0  0
   14.5022   49.0503   18.1760 N   0  0  0  0  0  0  0  0  0  0  0  0
   14.5243   48.5189   19.5406 C   0  0  2  0  0  0  0  0  0  0  0  0
   13.2275   47.7298   19.7431 C   0  0  0  0  0  0  0  0  0  0  0  0
   12.2237   47.9394   19.0743 O   0  0  0  0  0  0  0  0  0  0  0  0
   13.2830   46.8092   20.7745 N   0  0  0  0  0  0  0  0  0  0  0  0
   12.1268   46.0349   21.1869 C   0  0  0  0  0  0  0  0  0  0  0  0
   11.9030   44.8208   20.3068 C   0  0  0  0  0  0  0  0  0  0  0  0
   14.5706   49.6702   20.5611 C   0  0  0  0  0  0  0  0  0  0  0  0
   15.9677   50.2865   20.7467 C   0  0  0  0  0  0  0  0  0  0  0  0
   16.7771   49.4904   21.7660 C   0  0  0  0  0  0  0  0  0  0  0  0
   15.8602   51.7364   21.2098 C   0  0  0  0  0  0  0  0  0  0  0  0
   15.3422   49.8083   16.0273 C   0  0  1  0  0  0  0  0  0  0  0  0
   15.8872   51.1355   16.1080 O   0  0  0  0  0  0  0  0  0  0  0  0
   15.9411   49.0655   14.8127 C   0  0  2  0  0  0  0  0  0  0  0  0
   17.4487   49.0599   14.8875 N   0  3  0  0  0  0  0  0  0  0  0  0
   15.5111   49.7886   13.5200 C   0  0  0  0  0  0  0  0  0  0  0  0
   15.7972   49.0896   12.2137 C   0  0  0  0  0  0  0  0  0  0  0  0
   15.3056   47.8152   11.9493 C   0  0  0  0  0  0  0  0  0  0  0  0
   15.4745   47.2377   10.7029 C   0  0  0  0  0  0  0  0  0  0  0  0
   16.1297   47.9242    9.6999 C   0  0  0  0  0  0  0  0  0  0  0  0
   16.6232   49.1902    9.9481 C   0  0  0  0  0  0  0  0  0  0  0  0
   16.4651   49.7655   11.1965 C   0  0  0  0  0  0  0  0  0  0  0  0
   13.6117   49.4232   17.8565 H   0  0  0  0  0  0  0  0  0  0  0  0
   15.3781   47.8423   19.6571 H   0  0  0  0  0  0  0  0  0  0  0  0
   14.1577   46.6597   21.2678 H   0  0  0  0  0  0  0  0  0  0  0  0
   12.2939   45.7174   22.2197 H   0  0  0  0  0  0  0  0  0  0  0  0
   11.2434   46.6807   21.1674 H   0  0  0  0  0  0  0  0  0  0  0  0
   12.7824   44.1747   20.3156 H   0  0  0  0  0  0  0  0  0  0  0  0
   11.7090   45.1115   19.2706 H   0  0  0  0  0  0  0  0  0  0  0  0
   11.0508   44.2365   20.6646 H   0  0  0  0  0  0  0  0  0  0  0  0
   13.8676   50.4464   20.2374 H   0  0  0  0  0  0  0  0  0  0  0  0
   14.1987   49.3293   21.5341 H   0  0  0  0  0  0  0  0  0  0  0  0
   16.5075   50.2852   19.7949 H   0  0  0  0  0  0  0  0  0  0  0  0
   16.3298   49.5566   22.7610 H   0  0  0  0  0  0  0  0  0  0  0  0
   17.7974   49.8770   21.8464 H   0  0  0  0  0  0  0  0  0  0  0  0
   16.8309   48.4327   21.4941 H   0  0  0  0  0  0  0  0  0  0  0  0
   15.3303   52.3447   20.4705 H   0  0  0  0  0  0  0  0  0  0  0  0
   16.8525   52.1771   21.3483 H   0  0  0  0  0  0  0  0  0  0  0  0
   15.3215   51.8149   22.1597 H   0  0  0  0  0  0  0  0  0  0  0  0
   14.2603   49.9064   15.8839 H   0  0  0  0  0  0  0  0  0  0  0  0
   15.4014   51.6225   16.7995 H   0  0  0  0  0  0  0  0  0  0  0  0
   15.6361   48.0135   14.8189 H   0  0  0  0  0  0  0  0  0  0  0  0
   17.8243   50.0118   14.7705 H   0  0  0  0  0  0  0  0  0  0  0  0
   17.8747   48.4813   14.1495 H   0  0  0  0  0  0  0  0  0  0  0  0
   17.7980   48.7067   15.7950 H   0  0  0  0  0  0  0  0  0  0  0  0
   14.4296   49.9626   13.5462 H   0  0  0  0  0  0  0  0  0  0  0  0
   15.9637   50.7865   13.4953 H   0  0  0  0  0  0  0  0  0  0  0  0
   14.7505   47.2694   12.7038 H   0  0  0  0  0  0  0  0  0  0  0  0
   15.0750   46.2495   10.5011 H   0  0  0  0  0  0  0  0  0  0  0  0
   16.2505   47.4730    8.7198 H   0  0  0  0  0  0  0  0  0  0  0  0
   17.1315   49.7363    9.1594 H   0  0  0  0  0  0  0  0  0  0  0  0
   16.8492   50.7681   11.3593 H   0  0  0  0  0  0  0  0  0  0  0  0
  1  2  2  0  0  0  0
  2  3  1  0  0  0  0
 14  2  1  0  0  0  0
  4  3  1  0  0  0  0
  3 25  1  0  0  0  0
  4  5  1  0  0  0  0
  4 26  1  0  0  0  0
  4 10  1  0  0  0  0
  5  7  1  0  0  0  0
  5  6  2  0  0  0  0
  7  8  1  0  0  0  0
  7 27  1  0  0  0  0
  8 28  1  0  0  0  0
  8 29  1  0  0  0  0
  8  9  1  0  0  0  0
  9 30  1  0  0  0  0
  9 31  1  0  0  0  0
  9 32  1  0  0  0  0
 10 33  1  0  0  0  0
 10 34  1  0  0  0  0
 10 11  1  0  0  0  0
 11 35  1  0  0  0  0
 11 13  1  0  0  0  0
 11 12  1  0  0  0  0
 12 36  1  0  0  0  0
 12 37  1  0  0  0  0
 12 38  1  0  0  0  0
 13 39  1  0  0  0  0
 13 40  1  0  0  0  0
 13 41  1  0  0  0  0
 14 42  1  0  0  0  0
 14 15  1  0  0  0  0
 14 16  1  0  0  0  0
 15 43  1  0  0  0  0
 16 44  1  0  0  0  0
 16 17  1  0  0  0  0
 16 18  1  0  0  0  0
 17 45  1  0  0  0  0
 17 46  1  0  0  0  0
 17 47  1  0  0  0  0
 18 48  1  0  0  0  0
 18 49  1  0  0  0  0
 18 19  1  0  0  0  0
 19 20  1  0  0  0  0
 19 24  2  0  0  0  0
 20 50  1  0  0  0  0
 20 21  2  0  0  0  0
 21 51  1  0  0  0  0
 21 22  1  0  0  0  0
 22 52  1  0  0  0  0
 22 23  2  0  0  0  0
 23 53  1  0  0  0  0
 23 24  1  0  0  0  0
 24 54  1  0  0  0  0
M  ZZC   1 o1
M  ZZC   2 c1
M  ZZC   3 n1
M  ZZC   4 c2
M  ZZC   5 c3
M  ZZC   6 o2
M  ZZC   7 n2
M  ZZC   8 c4
M  ZZC   9 c5
M  ZZC  10 c6
M  ZZC  11 c7
M  ZZC  12 c8
M  ZZC  13 c9
M  ZZC  14 c10
M  ZZC  15 o3
M  ZZC  16 c11
M  ZZC  17 n3
M  ZZC  18 c12
M  ZZC  19 c13
M  ZZC  20 c14
M  ZZC  21 c15
M  ZZC  22 c16
M  ZZC  23 c17
M  ZZC  24 c18
M  ZZC  25 h11
M  ZZC  26 h21
M  ZZC  27 h01
M  ZZC  28 h41
M  ZZC  29 h42
M  ZZC  30 h51
M  ZZC  31 h52
M  ZZC  32 h53
M  ZZC  33 h61
M  ZZC  34 h62
M  ZZC  35 h71
M  ZZC  36 h81
M  ZZC  37 h82
M  ZZC  38 h83
M  ZZC  39 h91
M  ZZC  40 h92
M  ZZC  41 h93
M  ZZC  42 h101
M  ZZC  43 h31
M  ZZC  44 h111
M  ZZC  45 h02
M  ZZC  46 h32
M  ZZC  47 h33
M  ZZC  48 h121
M  ZZC  49 h122
M  ZZC  50 h141
M  ZZC  51 h151
M  ZZC  52 h161
M  ZZC  53 h171
M  ZZC  54 h181
M  ZZM   1 7
M  ZZI   1 81
M  ZZM   2 3
M  ZZI   2 121
M  ZZM   3 10
M  ZZI   3 211
M  ZZM   4 1
M  ZZI   4 113
M  ZZM   5 3
M  ZZI   5 121
M  ZZM   6 7
M  ZZI   6 81
M  ZZM   7 10
M  ZZI   7 211
M  ZZM   8 1
M  ZZI   8 112
M  ZZM   9 1
M  ZZI   9 111
M  ZZM  10 1
M  ZZI  10 112
M  ZZM  11 1
M  ZZI  11 113
M  ZZM  12 1
M  ZZI  12 111
M  ZZM  13 1
M  ZZI  13 111
M  ZZM  14 1
M  ZZI  14 113
M  ZZM  15 6
M  ZZI  15 60
M  ZZM  16 1
M  ZZI  16 113
M  ZZM  17 34
M  ZZI  17 231
M  ZZM  18 1
M  ZZI  18 112
M  ZZM  19 37
M  ZZI  19 124
M  ZZM  20 37
M  ZZI  20 125
M  ZZM  21 37
M  ZZI  21 125
M  ZZM  22 37
M  ZZI  22 125
M  ZZM  23 37
M  ZZI  23 125
M  ZZM  24 37
M  ZZI  24 125
M  ZZM  25 28
M  ZZI  25 11
M  ZZM  26 5
M  ZZI  26 1
M  ZZM  27 28
M  ZZI  27 11
M  ZZM  28 5
M  ZZI  28 1
M  ZZM  29 5
M  ZZI  29 1
M  ZZM  30 5
M  ZZI  30 1
M  ZZM  31 5
M  ZZI  31 1
M  ZZM  32 5
M  ZZI  32 1
M  ZZM  33 5
M  ZZI  33 1
M  ZZM  34 5
M  ZZI  34 1
M  ZZM  35 5
M  ZZI  35 1
M  ZZM  36 5
M  ZZI  36 1
M  ZZM  37 5
M  ZZI  37 1
M  ZZM  38 5
M  ZZI  38 1
M  ZZM  39 5
M  ZZI  39 1
M  ZZM  40 5
M  ZZI  40 1
M  ZZM  41 5
M  ZZI  41 1
M  ZZM  42 5
M  ZZI  42 1
M  ZZM  43 21
M  ZZI  43 20
M  ZZM  44 5
M  ZZI  44 1
M  ZZM  45 36
M  ZZI  45 17
M  ZZM  46 36
M  ZZI  46 17
M  ZZM  47 36
M  ZZI  47 17
M  ZZM  48 5
M  ZZI  48 1
M  ZZM  49 5
M  ZZI  49 1
M  ZZM  50 5
M  ZZI  50 1
M  ZZM  51 5
M  ZZI  51 1
M  ZZM  52 5
M  ZZI  52 1
M  ZZM  53 5
M  ZZI  53 1
M  ZZM  54 5
M  ZZI  54 1
M  CHG  1  17   1
M  END
> <IX>
1

> <NAME>
cIAP1_1T5Z_1.pdb

> <Score>
-18.533825

> <Natom>
54

> <Nflex>
10

> <Hbond>
-5.63456

> <Hphob>
-4.622213

> <VwInt>
-22.23028

> <Dsolv>
9.393936

> <SolEl>
9.092684

> <Eintl>
3.336916

> <RecConf>
ND

> <projPath>
cIAP1_maps/

> <NAME_>
cIAP1_1T5Z_1.pdb

$$$$
