IAPBIR2_6W8L_2.pdb
  MOLSOFT 04032206413D

 82 85  0  0  1  0  0  0  0  0999 V2000
    8.9275   45.8091   13.3958 C   0  0  0  0  0  0  0  0  0  0  0  0
    9.2168   47.2315   13.7870 C   0  0  0  0  0  0  0  0  0  0  0  0
    8.8606   48.1769   13.1003 O   0  0  0  0  0  0  0  0  0  0  0  0
    9.8779   47.3359   14.9936 N   0  0  0  0  0  0  0  0  0  0  0  0
   10.1875   48.6221   15.6116 C   0  0  2  0  0  0  0  0  0  0  0  0
   11.6877   48.8860   15.7045 C   0  0  0  0  0  0  0  0  0  0  0  0
   12.0962   48.3618   16.9939 N   0  0  0  0  0  0  0  0  0  0  0  0
   13.3577   48.3967   17.5926 C   0  0  0  0  0  0  0  0  0  0  0  0
   13.6035   47.6794   18.5529 O   0  0  0  0  0  0  0  0  0  0  0  0
   14.3787   49.4571   17.1305 C   0  0  1  0  0  0  0  0  0  0  0  0
   15.4858   49.4057   18.0901 N   0  0  0  0  0  0  0  0  0  0  0  0
   15.4867   50.1735   19.2435 C   0  0  0  0  0  0  0  0  0  0  0  0
   14.6683   51.0488   19.4894 O   0  0  0  0  0  0  0  0  0  0  0  0
   16.5919   49.8050   20.2281 C   0  0  1  0  0  0  0  0  0  0  0  0
   16.9606   50.9713   21.1291 N   0  3  0  0  0  0  0  0  0  0  0  0
   18.2227   50.8243   21.9189 C   0  0  0  0  0  0  0  0  0  0  0  0
   16.1133   48.6240   21.0739 C   0  0  0  0  0  0  0  0  0  0  0  0
   14.8825   49.4228   15.6746 C   0  0  0  0  0  0  0  0  0  0  0  0
   15.8424   50.5904   15.4082 C   0  0  0  0  0  0  0  0  0  0  0  0
   16.2167   50.6595   13.9374 C   0  0  0  0  0  0  0  0  0  0  0  0
   16.8172   49.3479   13.4672 C   0  0  0  0  0  0  0  0  0  0  0  0
   15.9275   48.1524   13.7865 C   0  0  0  0  0  0  0  0  0  0  0  0
   15.5375   48.1058   15.2570 C   0  0  0  0  0  0  0  0  0  0  0  0
   10.9341   48.0168   17.8058 C   0  0  2  0  0  0  0  0  0  0  0  0
   10.6907   46.5236   18.0267 C   0  0  0  0  0  0  0  0  0  0  0  0
   10.7963   45.6877   17.1362 O   0  0  0  0  0  0  0  0  0  0  0  0
   10.2598   46.2550   19.3142 N   0  0  0  0  0  0  0  0  0  0  0  0
    9.8904   44.9295   19.7685 C   0  0  1  0  0  0  0  0  0  0  0  0
   10.3586   44.7233   21.1923 C   0  0  0  0  0  0  0  0  0  0  0  0
    9.4673   44.5666   22.2604 C   0  0  0  0  0  0  0  0  0  0  0  0
    9.9630   44.3899   23.5489 C   0  0  0  0  0  0  0  0  0  0  0  0
   11.3211   44.4190   23.7957 C   0  0  0  0  0  0  0  0  0  0  0  0
   12.1975   44.5941   22.7494 C   0  0  0  0  0  0  0  0  0  0  0  0
   11.7233   44.7376   21.4630 C   0  0  0  0  0  0  0  0  0  0  0  0
    7.9788   44.5609   22.0457 C   0  0  0  0  0  0  0  0  0  0  0  0
    7.5845   45.2509   20.7469 C   0  0  0  0  0  0  0  0  0  0  0  0
    8.3907   44.7057   19.5796 C   0  0  0  0  0  0  0  0  0  0  0  0
    9.7531   48.6349   17.0680 C   0  0  0  0  0  0  0  0  0  0  0  0
    9.7653   45.1640   13.6651 H   0  0  0  0  0  0  0  0  0  0  0  0
    8.7767   45.7433   12.3146 H   0  0  0  0  0  0  0  0  0  0  0  0
    8.0268   45.4655   13.9121 H   0  0  0  0  0  0  0  0  0  0  0  0
   10.1629   46.4859   15.4781 H   0  0  0  0  0  0  0  0  0  0  0  0
    9.6885   49.4113   15.0400 H   0  0  0  0  0  0  0  0  0  0  0  0
   12.2541   48.3936   14.9087 H   0  0  0  0  0  0  0  0  0  0  0  0
   11.8967   49.9610   15.6949 H   0  0  0  0  0  0  0  0  0  0  0  0
   13.8717   50.4171   17.2774 H   0  0  0  0  0  0  0  0  0  0  0  0
   16.1863   48.6810   17.9734 H   0  0  0  0  0  0  0  0  0  0  0  0
   17.4830   49.5532   19.6492 H   0  0  0  0  0  0  0  0  0  0  0  0
   17.0567   51.8144   20.5460 H   0  0  0  0  0  0  0  0  0  0  0  0
   16.1735   51.1778   21.7582 H   0  0  0  0  0  0  0  0  0  0  0  0
   18.3833   51.7313   22.5069 H   0  0  0  0  0  0  0  0  0  0  0  0
   19.0403   50.6898   21.2063 H   0  0  0  0  0  0  0  0  0  0  0  0
   18.1352   49.9410   22.5576 H   0  0  0  0  0  0  0  0  0  0  0  0
   15.2592   48.9012   21.6983 H   0  0  0  0  0  0  0  0  0  0  0  0
   16.9004   48.2455   21.7291 H   0  0  0  0  0  0  0  0  0  0  0  0
   15.7863   47.7933   20.4435 H   0  0  0  0  0  0  0  0  0  0  0  0
   14.0271   49.5744   15.0156 H   0  0  0  0  0  0  0  0  0  0  0  0
   15.3836   51.5393   15.7049 H   0  0  0  0  0  0  0  0  0  0  0  0
   16.7570   50.4837   16.0029 H   0  0  0  0  0  0  0  0  0  0  0  0
   15.3290   50.8923   13.3397 H   0  0  0  0  0  0  0  0  0  0  0  0
   16.9309   51.4726   13.7741 H   0  0  0  0  0  0  0  0  0  0  0  0
   16.9949   49.3987   12.3900 H   0  0  0  0  0  0  0  0  0  0  0  0
   17.7891   49.2203   13.9516 H   0  0  0  0  0  0  0  0  0  0  0  0
   15.0297   48.1976   13.1647 H   0  0  0  0  0  0  0  0  0  0  0  0
   16.4374   47.2265   13.5193 H   0  0  0  0  0  0  0  0  0  0  0  0
   16.4342   47.9146   15.8535 H   0  0  0  0  0  0  0  0  0  0  0  0
   14.8575   47.2669   15.4266 H   0  0  0  0  0  0  0  0  0  0  0  0
   11.0551   48.4947   18.7854 H   0  0  0  0  0  0  0  0  0  0  0  0
   10.1921   47.0062   19.9928 H   0  0  0  0  0  0  0  0  0  0  0  0
   10.3983   44.2122   19.1252 H   0  0  0  0  0  0  0  0  0  0  0  0
    9.2819   44.2404   24.3812 H   0  0  0  0  0  0  0  0  0  0  0  0
   11.7010   44.3076   24.8055 H   0  0  0  0  0  0  0  0  0  0  0  0
   13.2616   44.6137   22.9352 H   0  0  0  0  0  0  0  0  0  0  0  0
   12.4383   44.8810   20.6615 H   0  0  0  0  0  0  0  0  0  0  0  0
    7.6282   43.5239   22.0462 H   0  0  0  0  0  0  0  0  0  0  0  0
    7.4796   45.0683   22.8780 H   0  0  0  0  0  0  0  0  0  0  0  0
    6.5157   45.1017   20.5638 H   0  0  0  0  0  0  0  0  0  0  0  0
    7.7421   46.3320   20.8321 H   0  0  0  0  0  0  0  0  0  0  0  0
    8.0456   45.1541   18.6418 H   0  0  0  0  0  0  0  0  0  0  0  0
    8.1973   43.6354   19.4896 H   0  0  0  0  0  0  0  0  0  0  0  0
    9.6260   49.6732   17.3956 H   0  0  0  0  0  0  0  0  0  0  0  0
    8.8064   48.1102   17.2405 H   0  0  0  0  0  0  0  0  0  0  0  0
  1 39  1  0  0  0  0
  1 40  1  0  0  0  0
  1 41  1  0  0  0  0
  1  2  1  0  0  0  0
  2  3  2  0  0  0  0
  2  4  1  0  0  0  0
  4 42  1  0  0  0  0
  5  4  1  0  0  0  0
  5 43  1  0  0  0  0
  5 38  1  0  0  0  0
  5  6  1  0  0  0  0
  6  7  1  0  0  0  0
  6 44  1  0  0  0  0
  6 45  1  0  0  0  0
 24  7  1  0  0  0  0
  7  8  1  0  0  0  0
  8  9  2  0  0  0  0
 10  8  1  0  0  0  0
 10 46  1  0  0  0  0
 10 11  1  0  0  0  0
 10 18  1  0  0  0  0
 11 47  1  0  0  0  0
 11 12  1  0  0  0  0
 12 13  2  0  0  0  0
 14 12  1  0  0  0  0
 14 48  1  0  0  0  0
 14 17  1  0  0  0  0
 14 15  1  0  0  0  0
 15 49  1  0  0  0  0
 15 50  1  0  0  0  0
 15 16  1  0  0  0  0
 16 51  1  0  0  0  0
 16 52  1  0  0  0  0
 16 53  1  0  0  0  0
 17 54  1  0  0  0  0
 17 55  1  0  0  0  0
 17 56  1  0  0  0  0
 18 57  1  0  0  0  0
 18 19  1  0  0  0  0
 18 23  1  0  0  0  0
 19 58  1  0  0  0  0
 19 59  1  0  0  0  0
 19 20  1  0  0  0  0
 20 60  1  0  0  0  0
 20 61  1  0  0  0  0
 20 21  1  0  0  0  0
 21 62  1  0  0  0  0
 21 63  1  0  0  0  0
 21 22  1  0  0  0  0
 22 64  1  0  0  0  0
 22 65  1  0  0  0  0
 22 23  1  0  0  0  0
 23 66  1  0  0  0  0
 23 67  1  0  0  0  0
 24 38  1  0  0  0  0
 24 68  1  0  0  0  0
 24 25  1  0  0  0  0
 25 26  2  0  0  0  0
 25 27  1  0  0  0  0
 27 69  1  0  0  0  0
 28 27  1  0  0  0  0
 28 70  1  0  0  0  0
 28 29  1  0  0  0  0
 28 37  1  0  0  0  0
 29 30  2  0  0  0  0
 29 34  1  0  0  0  0
 30 35  1  0  0  0  0
 30 31  1  0  0  0  0
 31 71  1  0  0  0  0
 31 32  2  0  0  0  0
 32 72  1  0  0  0  0
 32 33  1  0  0  0  0
 33 73  1  0  0  0  0
 33 34  2  0  0  0  0
 34 74  1  0  0  0  0
 35 75  1  0  0  0  0
 35 76  1  0  0  0  0
 35 36  1  0  0  0  0
 36 77  1  0  0  0  0
 36 78  1  0  0  0  0
 36 37  1  0  0  0  0
 37 79  1  0  0  0  0
 37 80  1  0  0  0  0
 38 81  1  0  0  0  0
 38 82  1  0  0  0  0
M  ZZC   1 c1
M  ZZC   2 c2
M  ZZC   3 o1
M  ZZC   4 n1
M  ZZC   5 c3
M  ZZC   6 c4
M  ZZC   7 n2
M  ZZC   8 c5
M  ZZC   9 o2
M  ZZC  10 c6
M  ZZC  11 n3
M  ZZC  12 c7
M  ZZC  13 o3
M  ZZC  14 c8
M  ZZC  15 n4
M  ZZC  16 c9
M  ZZC  17 c10
M  ZZC  18 c11
M  ZZC  19 c12
M  ZZC  20 c13
M  ZZC  21 c14
M  ZZC  22 c15
M  ZZC  23 c16
M  ZZC  24 c17
M  ZZC  25 c18
M  ZZC  26 o4
M  ZZC  27 n5
M  ZZC  28 c19
M  ZZC  29 c20
M  ZZC  30 c21
M  ZZC  31 c22
M  ZZC  32 c23
M  ZZC  33 c24
M  ZZC  34 c25
M  ZZC  35 c26
M  ZZC  36 c27
M  ZZC  37 c28
M  ZZC  38 c29
M  ZZC  39 h11
M  ZZC  40 h12
M  ZZC  41 h13
M  ZZC  42 h01
M  ZZC  43 h31
M  ZZC  44 h41
M  ZZC  45 h42
M  ZZC  46 h61
M  ZZC  47 h02
M  ZZC  48 h81
M  ZZC  49 h03
M  ZZC  50 h04
M  ZZC  51 h91
M  ZZC  52 h92
M  ZZC  53 h93
M  ZZC  54 h101
M  ZZC  55 h102
M  ZZC  56 h103
M  ZZC  57 h111
M  ZZC  58 h121
M  ZZC  59 h122
M  ZZC  60 h131
M  ZZC  61 h132
M  ZZC  62 h141
M  ZZC  63 h142
M  ZZC  64 h151
M  ZZC  65 h152
M  ZZC  66 h161
M  ZZC  67 h162
M  ZZC  68 h171
M  ZZC  69 h51
M  ZZC  70 h191
M  ZZC  71 h221
M  ZZC  72 h231
M  ZZC  73 h241
M  ZZC  74 h251
M  ZZC  75 h261
M  ZZC  76 h262
M  ZZC  77 h271
M  ZZC  78 h272
M  ZZC  79 h281
M  ZZC  80 h282
M  ZZC  81 h291
M  ZZC  82 h292
M  ZZM   1 1
M  ZZI   1 111
M  ZZM   2 3
M  ZZI   2 121
M  ZZM   3 7
M  ZZI   3 81
M  ZZM   4 10
M  ZZI   4 211
M  ZZM   5 1
M  ZZI   5 113
M  ZZM   6 1
M  ZZI   6 112
M  ZZM   7 10
M  ZZI   7 192
M  ZZM   8 3
M  ZZI   8 121
M  ZZM   9 7
M  ZZI   9 81
M  ZZM  10 1
M  ZZI  10 113
M  ZZM  11 10
M  ZZI  11 211
M  ZZM  12 3
M  ZZI  12 121
M  ZZM  13 7
M  ZZI  13 81
M  ZZM  14 1
M  ZZI  14 113
M  ZZM  15 34
M  ZZI  15 231
M  ZZM  16 1
M  ZZI  16 111
M  ZZM  17 1
M  ZZI  17 111
M  ZZM  18 1
M  ZZI  18 113
M  ZZM  19 1
M  ZZI  19 112
M  ZZM  20 1
M  ZZI  20 112
M  ZZM  21 1
M  ZZI  21 112
M  ZZM  22 1
M  ZZI  22 112
M  ZZM  23 1
M  ZZI  23 112
M  ZZM  24 1
M  ZZI  24 113
M  ZZM  25 3
M  ZZI  25 121
M  ZZM  26 7
M  ZZI  26 81
M  ZZM  27 10
M  ZZI  27 211
M  ZZM  28 1
M  ZZI  28 113
M  ZZM  29 37
M  ZZI  29 124
M  ZZM  30 37
M  ZZI  30 124
M  ZZM  31 37
M  ZZI  31 125
M  ZZM  32 37
M  ZZI  32 125
M  ZZM  33 37
M  ZZI  33 125
M  ZZM  34 37
M  ZZI  34 125
M  ZZM  35 1
M  ZZI  35 112
M  ZZM  36 1
M  ZZI  36 112
M  ZZM  37 1
M  ZZI  37 112
M  ZZM  38 1
M  ZZI  38 112
M  ZZM  39 5
M  ZZI  39 1
M  ZZM  40 5
M  ZZI  40 1
M  ZZM  41 5
M  ZZI  41 1
M  ZZM  42 28
M  ZZI  42 11
M  ZZM  43 5
M  ZZI  43 1
M  ZZM  44 5
M  ZZI  44 1
M  ZZM  45 5
M  ZZI  45 1
M  ZZM  46 5
M  ZZI  46 1
M  ZZM  47 28
M  ZZI  47 11
M  ZZM  48 5
M  ZZI  48 1
M  ZZM  49 36
M  ZZI  49 17
M  ZZM  50 36
M  ZZI  50 17
M  ZZM  51 5
M  ZZI  51 1
M  ZZM  52 5
M  ZZI  52 1
M  ZZM  53 5
M  ZZI  53 1
M  ZZM  54 5
M  ZZI  54 1
M  ZZM  55 5
M  ZZI  55 1
M  ZZM  56 5
M  ZZI  56 1
M  ZZM  57 5
M  ZZI  57 1
M  ZZM  58 5
M  ZZI  58 1
M  ZZM  59 5
M  ZZI  59 1
M  ZZM  60 5
M  ZZI  60 1
M  ZZM  61 5
M  ZZI  61 1
M  ZZM  62 5
M  ZZI  62 1
M  ZZM  63 5
M  ZZI  63 1
M  ZZM  64 5
M  ZZI  64 1
M  ZZM  65 5
M  ZZI  65 1
M  ZZM  66 5
M  ZZI  66 1
M  ZZM  67 5
M  ZZI  67 1
M  ZZM  68 5
M  ZZI  68 1
M  ZZM  69 28
M  ZZI  69 11
M  ZZM  70 5
M  ZZI  70 1
M  ZZM  71 5
M  ZZI  71 1
M  ZZM  72 5
M  ZZI  72 1
M  ZZM  73 5
M  ZZI  73 1
M  ZZM  74 5
M  ZZI  74 1
M  ZZM  75 5
M  ZZI  75 1
M  ZZM  76 5
M  ZZI  76 1
M  ZZM  77 5
M  ZZI  77 1
M  ZZM  78 5
M  ZZI  78 1
M  ZZM  79 5
M  ZZI  79 1
M  ZZM  80 5
M  ZZI  80 1
M  ZZM  81 5
M  ZZI  81 1
M  ZZM  82 5
M  ZZI  82 1
M  CHG  1  15   1
M  END
> <IX>
1

> <NAME>
IAPBIR2_6W8L_2.pdb

> <Score>
-29.602781

> <Natom>
82

> <Nflex>
9

> <Hbond>
-2.870227

> <Hphob>
-6.790603

> <VwInt>
-57.279217

> <Dsolv>
14.222307

> <SolEl>
24.178228

> <Eintl>
12.43909

> <RecConf>
ND

> <projPath>
IAPBIR2_maps/

> <NAME_>
IAPBIR2_6W8L_2.pdb

$$$$
