IAPBIR2_2HYY_10.pdb
  MOLSOFT 04032206323D

 48 48  0  0  1  0  0  0  0  0999 V2000
   13.0438   49.2982   20.5252 O   0  0  0  0  0  0  0  0  0  0  0  0
   13.7117   48.2793   20.4302 C   0  0  0  0  0  0  0  0  0  0  0  0
   13.2168   46.9991   20.5791 N   0  0  0  0  0  0  0  0  0  0  0  0
   11.7868   46.6786   20.6093 C   0  0  1  0  0  0  0  0  0  0  0  0
   11.2712   46.5630   19.1618 C   0  0  0  0  0  0  0  0  0  0  0  0
   11.8883   46.9597   18.1842 O   0  0  0  0  0  0  0  0  0  0  0  0
   10.0025   46.0613   19.0157 N   0  0  0  0  0  0  0  0  0  0  0  0
   11.5686   45.3891   21.4251 C   0  0  0  0  0  0  0  0  0  0  0  0
   11.7667   45.6084   22.9311 C   0  0  0  0  0  0  0  0  0  0  0  0
   11.8203   44.2764   23.6622 C   0  0  0  0  0  0  0  0  0  0  0  0
   10.6550   46.4666   23.5328 C   0  0  0  0  0  0  0  0  0  0  0  0
   15.1924   48.2905   20.0807 C   0  0  2  0  0  0  0  0  0  0  0  0
   16.0000   48.1465   21.2577 O   0  0  0  0  0  0  0  0  0  0  0  0
   15.5858   49.6021   19.3736 C   0  0  1  0  0  0  0  0  0  0  0  0
   16.1731   50.5121   20.4152 N   0  3  0  0  0  0  0  0  0  0  0  0
   16.6404   49.3791   18.2766 C   0  0  0  0  0  0  0  0  0  0  0  0
   16.1353   48.9303   16.9211 C   0  0  0  0  0  0  0  0  0  0  0  0
   14.8417   48.4658   16.6803 C   0  0  0  0  0  0  0  0  0  0  0  0
   14.4499   48.0817   15.4113 C   0  0  0  0  0  0  0  0  0  0  0  0
   15.3335   48.1544   14.3521 C   0  0  0  0  0  0  0  0  0  0  0  0
   16.6063   48.6235   14.5691 C   0  0  0  0  0  0  0  0  0  0  0  0
   17.0084   48.9817   15.8392 C   0  0  0  0  0  0  0  0  0  0  0  0
   13.8721   46.2244   20.5804 H   0  0  0  0  0  0  0  0  0  0  0  0
   11.2512   47.5250   21.0479 H   0  0  0  0  0  0  0  0  0  0  0  0
    9.6128   45.9882   18.0830 H   0  0  0  0  0  0  0  0  0  0  0  0
    9.4001   45.8000   19.7876 H   0  0  0  0  0  0  0  0  0  0  0  0
   10.5724   44.9693   21.2621 H   0  0  0  0  0  0  0  0  0  0  0  0
   12.2659   44.6205   21.0730 H   0  0  0  0  0  0  0  0  0  0  0  0
   12.7201   46.1164   23.0889 H   0  0  0  0  0  0  0  0  0  0  0  0
   11.9438   44.4172   24.7401 H   0  0  0  0  0  0  0  0  0  0  0  0
   12.6481   43.6604   23.3000 H   0  0  0  0  0  0  0  0  0  0  0  0
   10.9015   43.7149   23.4936 H   0  0  0  0  0  0  0  0  0  0  0  0
   10.6786   47.4887   23.1476 H   0  0  0  0  0  0  0  0  0  0  0  0
   10.7555   46.5351   24.6188 H   0  0  0  0  0  0  0  0  0  0  0  0
    9.6672   46.0465   23.3186 H   0  0  0  0  0  0  0  0  0  0  0  0
   15.3882   47.4320   19.4301 H   0  0  0  0  0  0  0  0  0  0  0  0
   15.7672   47.2986   21.6768 H   0  0  0  0  0  0  0  0  0  0  0  0
   14.7297   50.1431   18.9573 H   0  0  0  0  0  0  0  0  0  0  0  0
   15.4700   50.7698   21.1197 H   0  0  0  0  0  0  0  0  0  0  0  0
   16.5557   51.3834   20.0256 H   0  0  0  0  0  0  0  0  0  0  0  0
   16.9265   50.0183   20.9202 H   0  0  0  0  0  0  0  0  0  0  0  0
   17.1583   50.3250   18.1158 H   0  0  0  0  0  0  0  0  0  0  0  0
   17.3977   48.6683   18.6185 H   0  0  0  0  0  0  0  0  0  0  0  0
   14.1029   48.3959   17.4692 H   0  0  0  0  0  0  0  0  0  0  0  0
   13.4344   47.7365   15.2504 H   0  0  0  0  0  0  0  0  0  0  0  0
   15.0452   47.8571   13.3501 H   0  0  0  0  0  0  0  0  0  0  0  0
   17.2907   48.7155   13.7339 H   0  0  0  0  0  0  0  0  0  0  0  0
   18.0303   49.3107   15.9714 H   0  0  0  0  0  0  0  0  0  0  0  0
  1  2  2  0  0  0  0
  2  3  1  0  0  0  0
 12  2  1  0  0  0  0
  4  3  1  0  0  0  0
  3 23  1  0  0  0  0
  4  8  1  0  0  0  0
  4 24  1  0  0  0  0
  4  5  1  0  0  0  0
  5  6  2  0  0  0  0
  5  7  1  0  0  0  0
  7 25  1  0  0  0  0
  7 26  1  0  0  0  0
  8 27  1  0  0  0  0
  8 28  1  0  0  0  0
  8  9  1  0  0  0  0
  9 29  1  0  0  0  0
  9 11  1  0  0  0  0
  9 10  1  0  0  0  0
 10 30  1  0  0  0  0
 10 31  1  0  0  0  0
 10 32  1  0  0  0  0
 11 33  1  0  0  0  0
 11 34  1  0  0  0  0
 11 35  1  0  0  0  0
 12 36  1  0  0  0  0
 12 13  1  0  0  0  0
 12 14  1  0  0  0  0
 13 37  1  0  0  0  0
 14 38  1  0  0  0  0
 14 15  1  0  0  0  0
 14 16  1  0  0  0  0
 15 39  1  0  0  0  0
 15 40  1  0  0  0  0
 15 41  1  0  0  0  0
 16 42  1  0  0  0  0
 16 43  1  0  0  0  0
 16 17  1  0  0  0  0
 17 18  1  0  0  0  0
 17 22  2  0  0  0  0
 18 44  1  0  0  0  0
 18 19  2  0  0  0  0
 19 45  1  0  0  0  0
 19 20  1  0  0  0  0
 20 46  1  0  0  0  0
 20 21  2  0  0  0  0
 21 47  1  0  0  0  0
 21 22  1  0  0  0  0
 22 48  1  0  0  0  0
M  ZZC   1 o1
M  ZZC   2 c1
M  ZZC   3 n1
M  ZZC   4 c2
M  ZZC   5 c3
M  ZZC   6 o2
M  ZZC   7 n2
M  ZZC   8 c4
M  ZZC   9 c5
M  ZZC  10 c6
M  ZZC  11 c7
M  ZZC  12 c8
M  ZZC  13 o3
M  ZZC  14 c9
M  ZZC  15 n3
M  ZZC  16 c10
M  ZZC  17 c11
M  ZZC  18 c12
M  ZZC  19 c13
M  ZZC  20 c14
M  ZZC  21 c15
M  ZZC  22 c16
M  ZZC  23 h11
M  ZZC  24 h21
M  ZZC  25 h01
M  ZZC  26 h22
M  ZZC  27 h41
M  ZZC  28 h42
M  ZZC  29 h51
M  ZZC  30 h61
M  ZZC  31 h62
M  ZZC  32 h63
M  ZZC  33 h71
M  ZZC  34 h72
M  ZZC  35 h73
M  ZZC  36 h81
M  ZZC  37 h31
M  ZZC  38 h91
M  ZZC  39 h02
M  ZZC  40 h32
M  ZZC  41 h33
M  ZZC  42 h101
M  ZZC  43 h102
M  ZZC  44 h121
M  ZZC  45 h131
M  ZZC  46 h141
M  ZZC  47 h151
M  ZZC  48 h161
M  ZZM   1 7
M  ZZI   1 81
M  ZZM   2 3
M  ZZI   2 121
M  ZZM   3 10
M  ZZI   3 211
M  ZZM   4 1
M  ZZI   4 113
M  ZZM   5 3
M  ZZI   5 121
M  ZZM   6 7
M  ZZI   6 81
M  ZZM   7 10
M  ZZI   7 212
M  ZZM   8 1
M  ZZI   8 112
M  ZZM   9 1
M  ZZI   9 113
M  ZZM  10 1
M  ZZI  10 111
M  ZZM  11 1
M  ZZI  11 111
M  ZZM  12 1
M  ZZI  12 113
M  ZZM  13 6
M  ZZI  13 60
M  ZZM  14 1
M  ZZI  14 113
M  ZZM  15 34
M  ZZI  15 231
M  ZZM  16 1
M  ZZI  16 112
M  ZZM  17 37
M  ZZI  17 124
M  ZZM  18 37
M  ZZI  18 125
M  ZZM  19 37
M  ZZI  19 125
M  ZZM  20 37
M  ZZI  20 125
M  ZZM  21 37
M  ZZI  21 125
M  ZZM  22 37
M  ZZI  22 125
M  ZZM  23 28
M  ZZI  23 11
M  ZZM  24 5
M  ZZI  24 1
M  ZZM  25 28
M  ZZI  25 11
M  ZZM  26 28
M  ZZI  26 11
M  ZZM  27 5
M  ZZI  27 1
M  ZZM  28 5
M  ZZI  28 1
M  ZZM  29 5
M  ZZI  29 1
M  ZZM  30 5
M  ZZI  30 1
M  ZZM  31 5
M  ZZI  31 1
M  ZZM  32 5
M  ZZI  32 1
M  ZZM  33 5
M  ZZI  33 1
M  ZZM  34 5
M  ZZI  34 1
M  ZZM  35 5
M  ZZI  35 1
M  ZZM  36 5
M  ZZI  36 1
M  ZZM  37 21
M  ZZI  37 20
M  ZZM  38 5
M  ZZI  38 1
M  ZZM  39 36
M  ZZI  39 17
M  ZZM  40 36
M  ZZI  40 17
M  ZZM  41 36
M  ZZI  41 17
M  ZZM  42 5
M  ZZI  42 1
M  ZZM  43 5
M  ZZI  43 1
M  ZZM  44 5
M  ZZI  44 1
M  ZZM  45 5
M  ZZI  45 1
M  ZZM  46 5
M  ZZI  46 1
M  ZZM  47 5
M  ZZI  47 1
M  ZZM  48 5
M  ZZI  48 1
M  CHG  1  15   1
M  END
> <IX>
1

> <NAME>
IAPBIR2_2HYY_10.pdb

> <Score>
-25.942564

> <Natom>
48

> <Nflex>
9

> <Hbond>
-4.534771

> <Hphob>
-4.205392

> <VwInt>
-42.251339

> <Dsolv>
13.004066

> <SolEl>
15.23933

> <Eintl>
8.980584

> <RecConf>
ND

> <projPath>
IAPBIR2_maps/

> <NAME_>
IAPBIR2_2HYY_10.pdb

$$$$
