IAPBIR2_4QNQ_62.pdb
  MOLSOFT 04032206373D

 70 73  0  0  1  0  0  0  0  0999 V2000
   28.1120   27.9096    7.4565 O   0  0  0  0  0  0  0  0  0  0  0  0
   27.3700   27.0826    6.6372 C   0  0  0  0  0  0  0  0  0  0  0  0
   27.0833   25.8044    7.0844 C   0  0  0  0  0  0  0  0  0  0  0  0
   26.3184   24.9555    6.2832 C   0  0  0  0  0  0  0  0  0  0  0  0
   25.9469   23.5533    6.6619 C   0  0  0  0  0  0  0  0  0  0  0  0
   25.7341   22.7635    5.7487 O   0  0  0  0  0  0  0  0  0  0  0  0
   25.7945   23.1486    8.0552 C   0  0  0  0  0  0  0  0  0  0  0  0
   26.1013   23.9690    9.1192 N   0  0  0  0  0  0  0  0  0  0  0  0
   25.8492   23.3803   10.2711 C   0  0  0  0  0  0  0  0  0  0  0  0
   26.1168   24.0482   11.5889 C   0  0  1  0  0  0  0  0  0  0  0  0
   25.7312   23.2588   12.7557 N   0  0  0  0  0  0  0  0  0  0  0  0
   24.4280   23.2743   13.2556 C   0  0  0  0  0  0  0  0  0  0  0  0
   23.5302   23.8718   12.6830 O   0  0  0  0  0  0  0  0  0  0  0  0
   24.1453   22.5463   14.5767 C   0  0  2  0  0  0  0  0  0  0  0  0
   22.7878   22.0089   14.4519 N   0  0  0  0  0  0  0  0  0  0  0  0
   22.3609   20.9031   15.1679 C   0  0  0  0  0  0  0  0  0  0  0  0
   23.0757   20.2620   15.9243 O   0  0  0  0  0  0  0  0  0  0  0  0
   20.9043   20.5083   14.9346 C   0  0  1  0  0  0  0  0  0  0  0  0
   20.7145   19.0125   15.1057 N   0  3  0  0  0  0  0  0  0  0  0  0
   19.5081   18.4401   14.4409 C   0  0  0  0  0  0  0  0  0  0  0  0
   20.0024   21.2439   15.9227 C   0  0  0  0  0  0  0  0  0  0  0  0
   24.2611   23.4472   15.8396 C   0  0  0  0  0  0  0  0  0  0  0  0
   25.1368   22.7670   16.9018 C   0  0  0  0  0  0  0  0  0  0  0  0
   25.2914   23.6019   18.1653 C   0  0  0  0  0  0  0  0  0  0  0  0
   25.8417   24.9801   17.8476 C   0  0  0  0  0  0  0  0  0  0  0  0
   24.9737   25.6876   16.8281 C   0  0  0  0  0  0  0  0  0  0  0  0
   24.7490   24.8773   15.5636 C   0  0  0  0  0  0  0  0  0  0  0  0
   26.8930   22.6601   13.3874 C   0  0  0  0  0  0  0  0  0  0  0  0
   28.0601   23.0124   12.4850 C   0  0  0  0  0  0  0  0  0  0  0  0
   27.6024   24.2892   11.8084 C   0  0  0  0  0  0  0  0  0  0  0  0
   25.1986   21.7937   10.1329 S   0  0  0  0  0  0  0  0  0  0  0  0
   25.3015   21.9129    8.4320 C   0  0  0  0  0  0  0  0  0  0  0  0
   25.8928   25.4118    5.0347 C   0  0  0  0  0  0  0  0  0  0  0  0
   26.1997   26.6917    4.6007 C   0  0  0  0  0  0  0  0  0  0  0  0
   26.9334   27.5411    5.4066 C   0  0  0  0  0  0  0  0  0  0  0  0
   27.9891   28.8256    7.1450 H   0  0  0  0  0  0  0  0  0  0  0  0
   27.4679   25.4978    8.0498 H   0  0  0  0  0  0  0  0  0  0  0  0
   25.5801   24.9958   11.5893 H   0  0  0  0  0  0  0  0  0  0  0  0
   24.8111   21.6816   14.6549 H   0  0  0  0  0  0  0  0  0  0  0  0
   22.1763   22.4548   13.7682 H   0  0  0  0  0  0  0  0  0  0  0  0
   20.6405   20.7541   13.9051 H   0  0  0  0  0  0  0  0  0  0  0  0
   21.5441   18.5247   14.7406 H   0  0  0  0  0  0  0  0  0  0  0  0
   20.6964   18.7828   16.1090 H   0  0  0  0  0  0  0  0  0  0  0  0
   19.4289   17.3956   14.7515 H   0  0  0  0  0  0  0  0  0  0  0  0
   19.6522   18.4950   13.3592 H   0  0  0  0  0  0  0  0  0  0  0  0
   18.6323   19.0100   14.7580 H   0  0  0  0  0  0  0  0  0  0  0  0
   20.2197   20.9583   16.9565 H   0  0  0  0  0  0  0  0  0  0  0  0
   18.9436   21.0483   15.7336 H   0  0  0  0  0  0  0  0  0  0  0  0
   20.1560   22.3207   15.8511 H   0  0  0  0  0  0  0  0  0  0  0  0
   23.2623   23.5447   16.2793 H   0  0  0  0  0  0  0  0  0  0  0  0
   24.7109   21.7987   17.1785 H   0  0  0  0  0  0  0  0  0  0  0  0
   26.1308   22.5602   16.4922 H   0  0  0  0  0  0  0  0  0  0  0  0
   24.3223   23.6975   18.6668 H   0  0  0  0  0  0  0  0  0  0  0  0
   25.9582   23.0925   18.8676 H   0  0  0  0  0  0  0  0  0  0  0  0
   25.8930   25.5815   18.7601 H   0  0  0  0  0  0  0  0  0  0  0  0
   26.8636   24.8926   17.4637 H   0  0  0  0  0  0  0  0  0  0  0  0
   24.0105   25.9134   17.2857 H   0  0  0  0  0  0  0  0  0  0  0  0
   25.4441   26.6347   16.5638 H   0  0  0  0  0  0  0  0  0  0  0  0
   25.6899   24.8673   15.0077 H   0  0  0  0  0  0  0  0  0  0  0  0
   24.0147   25.4065   14.9489 H   0  0  0  0  0  0  0  0  0  0  0  0
   27.0197   23.0969   14.3814 H   0  0  0  0  0  0  0  0  0  0  0  0
   26.7574   21.5791   13.4937 H   0  0  0  0  0  0  0  0  0  0  0  0
   28.9958   23.1353   13.0390 H   0  0  0  0  0  0  0  0  0  0  0  0
   28.2149   22.2239   11.7400 H   0  0  0  0  0  0  0  0  0  0  0  0
   28.1633   24.5081   10.8936 H   0  0  0  0  0  0  0  0  0  0  0  0
   27.7413   25.1307   12.4975 H   0  0  0  0  0  0  0  0  0  0  0  0
   24.9844   21.0928    7.8036 H   0  0  0  0  0  0  0  0  0  0  0  0
   25.2959   24.7779    4.3856 H   0  0  0  0  0  0  0  0  0  0  0  0
   25.8417   27.0379    3.6361 H   0  0  0  0  0  0  0  0  0  0  0  0
   27.1553   28.5492    5.0724 H   0  0  0  0  0  0  0  0  0  0  0  0
  1 36  1  0  0  0  0
  1  2  1  0  0  0  0
  2  3  2  0  0  0  0
  2 35  1  0  0  0  0
  3 37  1  0  0  0  0
  3  4  1  0  0  0  0
  4 33  2  0  0  0  0
  4  5  1  0  0  0  0
  5  6  2  0  0  0  0
  5  7  1  0  0  0  0
  7 32  2  0  0  0  0
  7  8  1  0  0  0  0
  8  9  2  0  0  0  0
  9 31  1  0  0  0  0
 10  9  1  0  0  0  0
 10 38  1  0  0  0  0
 10 30  1  0  0  0  0
 10 11  1  0  0  0  0
 11 28  1  0  0  0  0
 11 12  1  0  0  0  0
 12 13  2  0  0  0  0
 14 12  1  0  0  0  0
 14 39  1  0  0  0  0
 14 15  1  0  0  0  0
 14 22  1  0  0  0  0
 15 40  1  0  0  0  0
 15 16  1  0  0  0  0
 16 17  2  0  0  0  0
 18 16  1  0  0  0  0
 18 41  1  0  0  0  0
 18 21  1  0  0  0  0
 18 19  1  0  0  0  0
 19 42  1  0  0  0  0
 19 43  1  0  0  0  0
 19 20  1  0  0  0  0
 20 44  1  0  0  0  0
 20 45  1  0  0  0  0
 20 46  1  0  0  0  0
 21 47  1  0  0  0  0
 21 48  1  0  0  0  0
 21 49  1  0  0  0  0
 22 50  1  0  0  0  0
 22 23  1  0  0  0  0
 22 27  1  0  0  0  0
 23 51  1  0  0  0  0
 23 52  1  0  0  0  0
 23 24  1  0  0  0  0
 24 53  1  0  0  0  0
 24 54  1  0  0  0  0
 24 25  1  0  0  0  0
 25 55  1  0  0  0  0
 25 56  1  0  0  0  0
 25 26  1  0  0  0  0
 26 57  1  0  0  0  0
 26 58  1  0  0  0  0
 26 27  1  0  0  0  0
 27 59  1  0  0  0  0
 27 60  1  0  0  0  0
 28 29  1  0  0  0  0
 28 61  1  0  0  0  0
 28 62  1  0  0  0  0
 29 30  1  0  0  0  0
 29 63  1  0  0  0  0
 29 64  1  0  0  0  0
 30 65  1  0  0  0  0
 30 66  1  0  0  0  0
 31 32  1  0  0  0  0
 32 67  1  0  0  0  0
 33 68  1  0  0  0  0
 33 34  1  0  0  0  0
 34 69  1  0  0  0  0
 34 35  2  0  0  0  0
 35 70  1  0  0  0  0
M  ZZC   1 o1
M  ZZC   2 c1
M  ZZC   3 c2
M  ZZC   4 c3
M  ZZC   5 c4
M  ZZC   6 o2
M  ZZC   7 c5
M  ZZC   8 n1
M  ZZC   9 c6
M  ZZC  10 c7
M  ZZC  11 n2
M  ZZC  12 c8
M  ZZC  13 o3
M  ZZC  14 c9
M  ZZC  15 n3
M  ZZC  16 c10
M  ZZC  17 o4
M  ZZC  18 c11
M  ZZC  19 n4
M  ZZC  20 c12
M  ZZC  21 c13
M  ZZC  22 c14
M  ZZC  23 c15
M  ZZC  24 c16
M  ZZC  25 c17
M  ZZC  26 c18
M  ZZC  27 c19
M  ZZC  28 c20
M  ZZC  29 c21
M  ZZC  30 c22
M  ZZC  31 s1
M  ZZC  32 c23
M  ZZC  33 c24
M  ZZC  34 c25
M  ZZC  35 c26
M  ZZC  36 h11
M  ZZC  37 h21
M  ZZC  38 h71
M  ZZC  39 h91
M  ZZC  40 h31
M  ZZC  41 h111
M  ZZC  42 h41
M  ZZC  43 h42
M  ZZC  44 h121
M  ZZC  45 h122
M  ZZC  46 h123
M  ZZC  47 h131
M  ZZC  48 h132
M  ZZC  49 h133
M  ZZC  50 h141
M  ZZC  51 h151
M  ZZC  52 h152
M  ZZC  53 h161
M  ZZC  54 h162
M  ZZC  55 h171
M  ZZC  56 h172
M  ZZC  57 h181
M  ZZC  58 h182
M  ZZC  59 h191
M  ZZC  60 h192
M  ZZC  61 h201
M  ZZC  62 h202
M  ZZC  63 h211
M  ZZC  64 h212
M  ZZC  65 h221
M  ZZC  66 h222
M  ZZC  67 h231
M  ZZC  68 h241
M  ZZC  69 h251
M  ZZC  70 h261
M  ZZM   1 6
M  ZZI   1 62
M  ZZM   2 37
M  ZZI   2 124
M  ZZM   3 37
M  ZZI   3 125
M  ZZM   4 37
M  ZZI   4 124
M  ZZM   5 3
M  ZZI   5 122
M  ZZM   6 7
M  ZZI   6 80
M  ZZM   7 64
M  ZZI   7 105
M  ZZM   8 66
M  ZZI   8 222
M  ZZM   9 63
M  ZZI   9 104
M  ZZM  10 1
M  ZZI  10 113
M  ZZM  11 10
M  ZZI  11 192
M  ZZM  12 3
M  ZZI  12 121
M  ZZM  13 7
M  ZZI  13 81
M  ZZM  14 1
M  ZZI  14 113
M  ZZM  15 10
M  ZZI  15 211
M  ZZM  16 3
M  ZZI  16 121
M  ZZM  17 7
M  ZZI  17 81
M  ZZM  18 1
M  ZZI  18 113
M  ZZM  19 34
M  ZZI  19 231
M  ZZM  20 1
M  ZZI  20 111
M  ZZM  21 1
M  ZZI  21 111
M  ZZM  22 1
M  ZZI  22 113
M  ZZM  23 1
M  ZZI  23 112
M  ZZM  24 1
M  ZZI  24 112
M  ZZM  25 1
M  ZZI  25 112
M  ZZM  26 1
M  ZZI  26 112
M  ZZM  27 1
M  ZZI  27 112
M  ZZM  28 1
M  ZZI  28 112
M  ZZM  29 1
M  ZZI  29 112
M  ZZM  30 1
M  ZZI  30 112
M  ZZM  31 44
M  ZZI  31 248
M  ZZM  32 63
M  ZZI  32 104
M  ZZM  33 37
M  ZZI  33 125
M  ZZM  34 37
M  ZZI  34 125
M  ZZM  35 37
M  ZZI  35 125
M  ZZM  36 29
M  ZZI  36 27
M  ZZM  37 5
M  ZZI  37 1
M  ZZM  38 5
M  ZZI  38 1
M  ZZM  39 5
M  ZZI  39 1
M  ZZM  40 28
M  ZZI  40 11
M  ZZM  41 5
M  ZZI  41 1
M  ZZM  42 36
M  ZZI  42 17
M  ZZM  43 36
M  ZZI  43 17
M  ZZM  44 5
M  ZZI  44 1
M  ZZM  45 5
M  ZZI  45 1
M  ZZM  46 5
M  ZZI  46 1
M  ZZM  47 5
M  ZZI  47 1
M  ZZM  48 5
M  ZZI  48 1
M  ZZM  49 5
M  ZZI  49 1
M  ZZM  50 5
M  ZZI  50 1
M  ZZM  51 5
M  ZZI  51 1
M  ZZM  52 5
M  ZZI  52 1
M  ZZM  53 5
M  ZZI  53 1
M  ZZM  54 5
M  ZZI  54 1
M  ZZM  55 5
M  ZZI  55 1
M  ZZM  56 5
M  ZZI  56 1
M  ZZM  57 5
M  ZZI  57 1
M  ZZM  58 5
M  ZZI  58 1
M  ZZM  59 5
M  ZZI  59 1
M  ZZM  60 5
M  ZZI  60 1
M  ZZM  61 5
M  ZZI  61 1
M  ZZM  62 5
M  ZZI  62 1
M  ZZM  63 5
M  ZZI  63 1
M  ZZM  64 5
M  ZZI  64 1
M  ZZM  65 5
M  ZZI  65 1
M  ZZM  66 5
M  ZZI  66 1
M  ZZM  67 5
M  ZZI  67 1
M  ZZM  68 5
M  ZZI  68 1
M  ZZM  69 5
M  ZZI  69 1
M  ZZM  70 5
M  ZZI  70 1
M  CHG  1  19   1
M  END
> <IX>
1

> <NAME>
IAPBIR2_4QNQ_62.pdb

> <Score>
-20.344944

> <Natom>
70

> <Nflex>
7

> <Hbond>
-3.121716

> <Hphob>
-5.397978

> <VwInt>
-52.53872

> <Dsolv>
15.023023

> <SolEl>
32.642979

> <Eintl>
11.161216

> <RecConf>
ND

> <projPath>
IAPBIR2_maps/

> <NAME_>
IAPBIR2_4QNQ_62.pdb

$$$$
