IAPBIR2_6W8L_1.pdb
  MOLSOFT 04032206403D

 82 85  0  0  1  0  0  0  0  0999 V2000
   10.8366   48.2060   14.8126 C   0  0  0  0  0  0  0  0  0  0  0  0
   10.8359   49.3959   15.7322 C   0  0  0  0  0  0  0  0  0  0  0  0
   10.9181   50.5442   15.3231 O   0  0  0  0  0  0  0  0  0  0  0  0
   10.7411   49.0379   17.0587 N   0  0  0  0  0  0  0  0  0  0  0  0
   10.8288   50.0115   18.1458 C   0  0  2  0  0  0  0  0  0  0  0  0
   12.2783   50.3256   18.4829 C   0  0  0  0  0  0  0  0  0  0  0  0
   12.6920   49.1943   19.2931 N   0  0  0  0  0  0  0  0  0  0  0  0
   13.9881   48.7880   19.6121 C   0  0  0  0  0  0  0  0  0  0  0  0
   14.1926   47.8464   20.3677 O   0  0  0  0  0  0  0  0  0  0  0  0
   15.1559   49.5387   18.9518 C   0  0  1  0  0  0  0  0  0  0  0  0
   16.2100   49.5593   19.9743 N   0  0  0  0  0  0  0  0  0  0  0  0
   16.2636   50.5332   20.9570 C   0  0  0  0  0  0  0  0  0  0  0  0
   15.4871   51.4763   21.0112 O   0  0  0  0  0  0  0  0  0  0  0  0
   17.3973   50.3432   21.9733 C   0  0  1  0  0  0  0  0  0  0  0  0
   18.6917   50.9506   21.4601 N   0  3  0  0  0  0  0  0  0  0  0  0
   19.9130   50.7471   22.2941 C   0  0  0  0  0  0  0  0  0  0  0  0
   17.0256   50.9845   23.3080 C   0  0  0  0  0  0  0  0  0  0  0  0
   15.6358   48.8227   17.6670 C   0  0  0  0  0  0  0  0  0  0  0  0
   14.5933   48.7933   16.5416 C   0  0  0  0  0  0  0  0  0  0  0  0
   15.1085   48.1452   15.2681 C   0  0  0  0  0  0  0  0  0  0  0  0
   16.3609   48.8276   14.7634 C   0  0  0  0  0  0  0  0  0  0  0  0
   17.4286   48.8415   15.8384 C   0  0  0  0  0  0  0  0  0  0  0  0
   16.9376   49.4448   17.1497 C   0  0  0  0  0  0  0  0  0  0  0  0
   11.5349   48.6063   19.9580 C   0  0  2  0  0  0  0  0  0  0  0  0
   11.3025   47.1283   19.6374 C   0  0  0  0  0  0  0  0  0  0  0  0
   11.4164   46.6498   18.5158 O   0  0  0  0  0  0  0  0  0  0  0  0
   10.8737   46.4328   20.7472 N   0  0  0  0  0  0  0  0  0  0  0  0
   10.5884   45.0117   20.7759 C   0  0  1  0  0  0  0  0  0  0  0  0
   10.5463   44.5958   22.2232 C   0  0  0  0  0  0  0  0  0  0  0  0
    9.3384   44.4036   22.9057 C   0  0  0  0  0  0  0  0  0  0  0  0
    9.3596   44.1523   24.2721 C   0  0  0  0  0  0  0  0  0  0  0  0
   10.5526   44.1396   24.9651 C   0  0  0  0  0  0  0  0  0  0  0  0
   11.7415   44.3124   24.2871 C   0  0  0  0  0  0  0  0  0  0  0  0
   11.7418   44.5303   22.9289 C   0  0  0  0  0  0  0  0  0  0  0  0
    8.0099   44.4455   22.1999 C   0  0  0  0  0  0  0  0  0  0  0  0
    8.0737   45.1532   20.8529 C   0  0  0  0  0  0  0  0  0  0  0  0
    9.2801   44.6909   20.0519 C   0  0  0  0  0  0  0  0  0  0  0  0
   10.3389   49.4190   19.4597 C   0  0  0  0  0  0  0  0  0  0  0  0
   11.5968   47.4890   15.1372 H   0  0  0  0  0  0  0  0  0  0  0  0
   11.0652   48.5272   13.7923 H   0  0  0  0  0  0  0  0  0  0  0  0
    9.8552   47.7227   14.8274 H   0  0  0  0  0  0  0  0  0  0  0  0
   10.7661   48.0462   17.2915 H   0  0  0  0  0  0  0  0  0  0  0  0
   10.2745   50.9106   17.8558 H   0  0  0  0  0  0  0  0  0  0  0  0
   12.9094   50.4785   17.6112 H   0  0  0  0  0  0  0  0  0  0  0  0
   12.3540   51.2202   19.1119 H   0  0  0  0  0  0  0  0  0  0  0  0
   14.8738   50.5751   18.7409 H   0  0  0  0  0  0  0  0  0  0  0  0
   16.8317   48.7576   20.0299 H   0  0  0  0  0  0  0  0  0  0  0  0
   17.5766   49.2713   22.1137 H   0  0  0  0  0  0  0  0  0  0  0  0
   18.8908   50.5356   20.5411 H   0  0  0  0  0  0  0  0  0  0  0  0
   18.5642   51.9575   21.2831 H   0  0  0  0  0  0  0  0  0  0  0  0
   19.8050   51.3134   23.2219 H   0  0  0  0  0  0  0  0  0  0  0  0
   20.7636   51.1244   21.7202 H   0  0  0  0  0  0  0  0  0  0  0  0
   20.0295   49.6781   22.4876 H   0  0  0  0  0  0  0  0  0  0  0  0
   16.9845   52.0758   23.2348 H   0  0  0  0  0  0  0  0  0  0  0  0
   17.7420   50.7241   24.0912 H   0  0  0  0  0  0  0  0  0  0  0  0
   16.0431   50.6389   23.6427 H   0  0  0  0  0  0  0  0  0  0  0  0
   15.8331   47.7879   17.9409 H   0  0  0  0  0  0  0  0  0  0  0  0
   13.6998   48.2511   16.8627 H   0  0  0  0  0  0  0  0  0  0  0  0
   14.2924   49.8141   16.2913 H   0  0  0  0  0  0  0  0  0  0  0  0
   15.3174   47.0891   15.4463 H   0  0  0  0  0  0  0  0  0  0  0  0
   14.3377   48.1969   14.4980 H   0  0  0  0  0  0  0  0  0  0  0  0
   16.7311   48.3071   13.8741 H   0  0  0  0  0  0  0  0  0  0  0  0
   16.1326   49.8544   14.4593 H   0  0  0  0  0  0  0  0  0  0  0  0
   17.7762   47.8237   16.0168 H   0  0  0  0  0  0  0  0  0  0  0  0
   18.2943   49.3920   15.4688 H   0  0  0  0  0  0  0  0  0  0  0  0
   16.7926   50.5211   17.0092 H   0  0  0  0  0  0  0  0  0  0  0  0
   17.7252   49.3232   17.8993 H   0  0  0  0  0  0  0  0  0  0  0  0
   11.6665   48.7292   21.0399 H   0  0  0  0  0  0  0  0  0  0  0  0
   10.7808   46.9274   21.6285 H   0  0  0  0  0  0  0  0  0  0  0  0
   11.4065   44.4948   20.2617 H   0  0  0  0  0  0  0  0  0  0  0  0
    8.4335   43.9833   24.8131 H   0  0  0  0  0  0  0  0  0  0  0  0
   10.5602   43.9729   26.0378 H   0  0  0  0  0  0  0  0  0  0  0  0
   12.6802   44.2737   24.8204 H   0  0  0  0  0  0  0  0  0  0  0  0
   12.6894   44.6834   22.4218 H   0  0  0  0  0  0  0  0  0  0  0  0
    7.6619   43.4171   22.0660 H   0  0  0  0  0  0  0  0  0  0  0  0
    7.2685   44.9519   22.8270 H   0  0  0  0  0  0  0  0  0  0  0  0
    7.1540   44.9573   20.2928 H   0  0  0  0  0  0  0  0  0  0  0  0
    8.1217   46.2373   21.0030 H   0  0  0  0  0  0  0  0  0  0  0  0
    9.2600   45.1444   19.0558 H   0  0  0  0  0  0  0  0  0  0  0  0
    9.2035   43.6130   19.9012 H   0  0  0  0  0  0  0  0  0  0  0  0
   10.1292   50.2291   20.1678 H   0  0  0  0  0  0  0  0  0  0  0  0
    9.4226   48.8281   19.3482 H   0  0  0  0  0  0  0  0  0  0  0  0
  1 39  1  0  0  0  0
  1 40  1  0  0  0  0
  1 41  1  0  0  0  0
  1  2  1  0  0  0  0
  2  3  2  0  0  0  0
  2  4  1  0  0  0  0
  4 42  1  0  0  0  0
  5  4  1  0  0  0  0
  5 43  1  0  0  0  0
  5 38  1  0  0  0  0
  5  6  1  0  0  0  0
  6  7  1  0  0  0  0
  6 44  1  0  0  0  0
  6 45  1  0  0  0  0
 24  7  1  0  0  0  0
  7  8  1  0  0  0  0
  8  9  2  0  0  0  0
 10  8  1  0  0  0  0
 10 46  1  0  0  0  0
 10 11  1  0  0  0  0
 10 18  1  0  0  0  0
 11 47  1  0  0  0  0
 11 12  1  0  0  0  0
 12 13  2  0  0  0  0
 14 12  1  0  0  0  0
 14 48  1  0  0  0  0
 14 17  1  0  0  0  0
 14 15  1  0  0  0  0
 15 49  1  0  0  0  0
 15 50  1  0  0  0  0
 15 16  1  0  0  0  0
 16 51  1  0  0  0  0
 16 52  1  0  0  0  0
 16 53  1  0  0  0  0
 17 54  1  0  0  0  0
 17 55  1  0  0  0  0
 17 56  1  0  0  0  0
 18 57  1  0  0  0  0
 18 19  1  0  0  0  0
 18 23  1  0  0  0  0
 19 58  1  0  0  0  0
 19 59  1  0  0  0  0
 19 20  1  0  0  0  0
 20 60  1  0  0  0  0
 20 61  1  0  0  0  0
 20 21  1  0  0  0  0
 21 62  1  0  0  0  0
 21 63  1  0  0  0  0
 21 22  1  0  0  0  0
 22 64  1  0  0  0  0
 22 65  1  0  0  0  0
 22 23  1  0  0  0  0
 23 66  1  0  0  0  0
 23 67  1  0  0  0  0
 24 38  1  0  0  0  0
 24 68  1  0  0  0  0
 24 25  1  0  0  0  0
 25 26  2  0  0  0  0
 25 27  1  0  0  0  0
 27 69  1  0  0  0  0
 28 27  1  0  0  0  0
 28 70  1  0  0  0  0
 28 29  1  0  0  0  0
 28 37  1  0  0  0  0
 29 30  2  0  0  0  0
 29 34  1  0  0  0  0
 30 35  1  0  0  0  0
 30 31  1  0  0  0  0
 31 71  1  0  0  0  0
 31 32  2  0  0  0  0
 32 72  1  0  0  0  0
 32 33  1  0  0  0  0
 33 73  1  0  0  0  0
 33 34  2  0  0  0  0
 34 74  1  0  0  0  0
 35 75  1  0  0  0  0
 35 76  1  0  0  0  0
 35 36  1  0  0  0  0
 36 77  1  0  0  0  0
 36 78  1  0  0  0  0
 36 37  1  0  0  0  0
 37 79  1  0  0  0  0
 37 80  1  0  0  0  0
 38 81  1  0  0  0  0
 38 82  1  0  0  0  0
M  ZZC   1 c1
M  ZZC   2 c2
M  ZZC   3 o1
M  ZZC   4 n1
M  ZZC   5 c3
M  ZZC   6 c4
M  ZZC   7 n2
M  ZZC   8 c5
M  ZZC   9 o2
M  ZZC  10 c6
M  ZZC  11 n3
M  ZZC  12 c7
M  ZZC  13 o3
M  ZZC  14 c8
M  ZZC  15 n4
M  ZZC  16 c9
M  ZZC  17 c10
M  ZZC  18 c11
M  ZZC  19 c12
M  ZZC  20 c13
M  ZZC  21 c14
M  ZZC  22 c15
M  ZZC  23 c16
M  ZZC  24 c17
M  ZZC  25 c18
M  ZZC  26 o4
M  ZZC  27 n5
M  ZZC  28 c19
M  ZZC  29 c20
M  ZZC  30 c21
M  ZZC  31 c22
M  ZZC  32 c23
M  ZZC  33 c24
M  ZZC  34 c25
M  ZZC  35 c26
M  ZZC  36 c27
M  ZZC  37 c28
M  ZZC  38 c29
M  ZZC  39 h11
M  ZZC  40 h12
M  ZZC  41 h13
M  ZZC  42 h01
M  ZZC  43 h31
M  ZZC  44 h41
M  ZZC  45 h42
M  ZZC  46 h61
M  ZZC  47 h02
M  ZZC  48 h81
M  ZZC  49 h03
M  ZZC  50 h04
M  ZZC  51 h91
M  ZZC  52 h92
M  ZZC  53 h93
M  ZZC  54 h101
M  ZZC  55 h102
M  ZZC  56 h103
M  ZZC  57 h111
M  ZZC  58 h121
M  ZZC  59 h122
M  ZZC  60 h131
M  ZZC  61 h132
M  ZZC  62 h141
M  ZZC  63 h142
M  ZZC  64 h151
M  ZZC  65 h152
M  ZZC  66 h161
M  ZZC  67 h162
M  ZZC  68 h171
M  ZZC  69 h51
M  ZZC  70 h191
M  ZZC  71 h221
M  ZZC  72 h231
M  ZZC  73 h241
M  ZZC  74 h251
M  ZZC  75 h261
M  ZZC  76 h262
M  ZZC  77 h271
M  ZZC  78 h272
M  ZZC  79 h281
M  ZZC  80 h282
M  ZZC  81 h291
M  ZZC  82 h292
M  ZZM   1 1
M  ZZI   1 111
M  ZZM   2 3
M  ZZI   2 121
M  ZZM   3 7
M  ZZI   3 81
M  ZZM   4 10
M  ZZI   4 211
M  ZZM   5 1
M  ZZI   5 113
M  ZZM   6 1
M  ZZI   6 112
M  ZZM   7 10
M  ZZI   7 192
M  ZZM   8 3
M  ZZI   8 121
M  ZZM   9 7
M  ZZI   9 81
M  ZZM  10 1
M  ZZI  10 113
M  ZZM  11 10
M  ZZI  11 211
M  ZZM  12 3
M  ZZI  12 121
M  ZZM  13 7
M  ZZI  13 81
M  ZZM  14 1
M  ZZI  14 113
M  ZZM  15 34
M  ZZI  15 231
M  ZZM  16 1
M  ZZI  16 111
M  ZZM  17 1
M  ZZI  17 111
M  ZZM  18 1
M  ZZI  18 113
M  ZZM  19 1
M  ZZI  19 112
M  ZZM  20 1
M  ZZI  20 112
M  ZZM  21 1
M  ZZI  21 112
M  ZZM  22 1
M  ZZI  22 112
M  ZZM  23 1
M  ZZI  23 112
M  ZZM  24 1
M  ZZI  24 113
M  ZZM  25 3
M  ZZI  25 121
M  ZZM  26 7
M  ZZI  26 81
M  ZZM  27 10
M  ZZI  27 211
M  ZZM  28 1
M  ZZI  28 113
M  ZZM  29 37
M  ZZI  29 124
M  ZZM  30 37
M  ZZI  30 124
M  ZZM  31 37
M  ZZI  31 125
M  ZZM  32 37
M  ZZI  32 125
M  ZZM  33 37
M  ZZI  33 125
M  ZZM  34 37
M  ZZI  34 125
M  ZZM  35 1
M  ZZI  35 112
M  ZZM  36 1
M  ZZI  36 112
M  ZZM  37 1
M  ZZI  37 112
M  ZZM  38 1
M  ZZI  38 112
M  ZZM  39 5
M  ZZI  39 1
M  ZZM  40 5
M  ZZI  40 1
M  ZZM  41 5
M  ZZI  41 1
M  ZZM  42 28
M  ZZI  42 11
M  ZZM  43 5
M  ZZI  43 1
M  ZZM  44 5
M  ZZI  44 1
M  ZZM  45 5
M  ZZI  45 1
M  ZZM  46 5
M  ZZI  46 1
M  ZZM  47 28
M  ZZI  47 11
M  ZZM  48 5
M  ZZI  48 1
M  ZZM  49 36
M  ZZI  49 17
M  ZZM  50 36
M  ZZI  50 17
M  ZZM  51 5
M  ZZI  51 1
M  ZZM  52 5
M  ZZI  52 1
M  ZZM  53 5
M  ZZI  53 1
M  ZZM  54 5
M  ZZI  54 1
M  ZZM  55 5
M  ZZI  55 1
M  ZZM  56 5
M  ZZI  56 1
M  ZZM  57 5
M  ZZI  57 1
M  ZZM  58 5
M  ZZI  58 1
M  ZZM  59 5
M  ZZI  59 1
M  ZZM  60 5
M  ZZI  60 1
M  ZZM  61 5
M  ZZI  61 1
M  ZZM  62 5
M  ZZI  62 1
M  ZZM  63 5
M  ZZI  63 1
M  ZZM  64 5
M  ZZI  64 1
M  ZZM  65 5
M  ZZI  65 1
M  ZZM  66 5
M  ZZI  66 1
M  ZZM  67 5
M  ZZI  67 1
M  ZZM  68 5
M  ZZI  68 1
M  ZZM  69 28
M  ZZI  69 11
M  ZZM  70 5
M  ZZI  70 1
M  ZZM  71 5
M  ZZI  71 1
M  ZZM  72 5
M  ZZI  72 1
M  ZZM  73 5
M  ZZI  73 1
M  ZZM  74 5
M  ZZI  74 1
M  ZZM  75 5
M  ZZI  75 1
M  ZZM  76 5
M  ZZI  76 1
M  ZZM  77 5
M  ZZI  77 1
M  ZZM  78 5
M  ZZI  78 1
M  ZZM  79 5
M  ZZI  79 1
M  ZZM  80 5
M  ZZI  80 1
M  ZZM  81 5
M  ZZI  81 1
M  ZZM  82 5
M  ZZI  82 1
M  CHG  1  15   1
M  END
> <IX>
1

> <NAME>
IAPBIR2_6W8L_1.pdb

> <Score>
-28.198724

> <Natom>
82

> <Nflex>
9

> <Hbond>
-4.027758

> <Hphob>
-6.397081

> <VwInt>
-54.473063

> <Dsolv>
16.507391

> <SolEl>
26.710726

> <Eintl>
8.901647

> <RecConf>
ND

> <projPath>
IAPBIR2_maps/

> <NAME_>
IAPBIR2_6W8L_1.pdb

$$$$
