IAPBIR2_3K6P_21.pdb
  MOLSOFT 04032206323D

 48 48  0  0  1  0  0  0  0  0999 V2000
   19.2051   21.4188   18.1364 N   0  0  0  0  0  0  0  0  0  0  0  0
   19.1304   21.3431   16.7696 C   0  0  0  0  0  0  0  0  0  0  0  0
   18.2098   21.8425   16.1393 O   0  0  0  0  0  0  0  0  0  0  0  0
   20.2943   20.5956   16.1160 C   0  0  2  0  0  0  0  0  0  0  0  0
   21.1981   21.5112   15.3945 N   0  0  0  0  0  0  0  0  0  0  0  0
   22.2951   22.0751   16.0320 C   0  0  0  0  0  0  0  0  0  0  0  0
   22.4988   21.9307   17.2286 O   0  0  0  0  0  0  0  0  0  0  0  0
   23.3057   22.8178   15.1468 C   0  0  1  0  0  0  0  0  0  0  0  0
   22.7796   23.3396   13.9141 O   0  0  0  0  0  0  0  0  0  0  0  0
   23.9542   23.9935   15.9207 C   0  0  2  0  0  0  0  0  0  0  0  0
   23.1943   25.2388   15.5710 N   0  3  0  0  0  0  0  0  0  0  0  0
   25.4320   24.2164   15.5560 C   0  0  0  0  0  0  0  0  0  0  0  0
   26.0880   25.4286   16.1931 C   0  0  0  0  0  0  0  0  0  0  0  0
   27.0645   26.1219   15.4846 C   0  0  0  0  0  0  0  0  0  0  0  0
   27.6579   27.2604   16.0027 C   0  0  0  0  0  0  0  0  0  0  0  0
   27.3102   27.7207   17.2549 C   0  0  0  0  0  0  0  0  0  0  0  0
   26.3821   27.0172   17.9949 C   0  0  0  0  0  0  0  0  0  0  0  0
   25.7827   25.8785   17.4806 C   0  0  0  0  0  0  0  0  0  0  0  0
   19.6848   19.5100   15.2242 C   0  0  0  0  0  0  0  0  0  0  0  0
   20.6794   18.6890   14.3951 C   0  0  0  0  0  0  0  0  0  0  0  0
   19.9317   17.6450   13.5695 C   0  0  0  0  0  0  0  0  0  0  0  0
   21.7414   18.0070   15.2530 C   0  0  0  0  0  0  0  0  0  0  0  0
   18.4940   21.9304   18.6467 H   0  0  0  0  0  0  0  0  0  0  0  0
   19.9832   21.0555   18.6758 H   0  0  0  0  0  0  0  0  0  0  0  0
   20.8726   20.1118   16.9099 H   0  0  0  0  0  0  0  0  0  0  0  0
   20.9944   21.7467   14.4274 H   0  0  0  0  0  0  0  0  0  0  0  0
   24.0715   22.0783   14.8895 H   0  0  0  0  0  0  0  0  0  0  0  0
   22.7909   22.6300   13.2448 H   0  0  0  0  0  0  0  0  0  0  0  0
   23.8689   23.8693   17.0020 H   0  0  0  0  0  0  0  0  0  0  0  0
   23.7018   26.1145   15.7418 H   0  0  0  0  0  0  0  0  0  0  0  0
   22.3209   25.2989   16.1013 H   0  0  0  0  0  0  0  0  0  0  0  0
   22.9244   25.2166   14.5763 H   0  0  0  0  0  0  0  0  0  0  0  0
   26.0115   23.3319   15.8403 H   0  0  0  0  0  0  0  0  0  0  0  0
   25.5140   24.3024   14.4663 H   0  0  0  0  0  0  0  0  0  0  0  0
   27.3642   25.7852   14.4961 H   0  0  0  0  0  0  0  0  0  0  0  0
   28.3988   27.7963   15.4226 H   0  0  0  0  0  0  0  0  0  0  0  0
   27.7645   28.6208   17.6575 H   0  0  0  0  0  0  0  0  0  0  0  0
   26.1131   27.3751   18.9816 H   0  0  0  0  0  0  0  0  0  0  0  0
   25.0605   25.3618   18.1042 H   0  0  0  0  0  0  0  0  0  0  0  0
   19.1059   18.8329   15.8581 H   0  0  0  0  0  0  0  0  0  0  0  0
   18.9534   19.9663   14.5511 H   0  0  0  0  0  0  0  0  0  0  0  0
   21.1824   19.3631   13.7006 H   0  0  0  0  0  0  0  0  0  0  0  0
   19.4235   16.9176   14.2092 H   0  0  0  0  0  0  0  0  0  0  0  0
   20.6173   17.0963   12.9172 H   0  0  0  0  0  0  0  0  0  0  0  0
   19.1759   18.1137   12.9322 H   0  0  0  0  0  0  0  0  0  0  0  0
   22.3824   18.7379   15.7530 H   0  0  0  0  0  0  0  0  0  0  0  0
   22.3922   17.3779   14.6382 H   0  0  0  0  0  0  0  0  0  0  0  0
   21.2860   17.3726   16.0202 H   0  0  0  0  0  0  0  0  0  0  0  0
  1  2  1  0  0  0  0
  1 23  1  0  0  0  0
  1 24  1  0  0  0  0
  4  2  1  0  0  0  0
  2  3  2  0  0  0  0
  4  5  1  0  0  0  0
  4 25  1  0  0  0  0
  4 19  1  0  0  0  0
  5  6  1  0  0  0  0
  5 26  1  0  0  0  0
  8  6  1  0  0  0  0
  6  7  2  0  0  0  0
  8  9  1  0  0  0  0
  8 27  1  0  0  0  0
  8 10  1  0  0  0  0
  9 28  1  0  0  0  0
 10 29  1  0  0  0  0
 10 11  1  0  0  0  0
 10 12  1  0  0  0  0
 11 30  1  0  0  0  0
 11 31  1  0  0  0  0
 11 32  1  0  0  0  0
 12 33  1  0  0  0  0
 12 34  1  0  0  0  0
 12 13  1  0  0  0  0
 13 18  2  0  0  0  0
 13 14  1  0  0  0  0
 14 15  2  0  0  0  0
 14 35  1  0  0  0  0
 15 16  1  0  0  0  0
 15 36  1  0  0  0  0
 16 17  2  0  0  0  0
 16 37  1  0  0  0  0
 17 18  1  0  0  0  0
 17 38  1  0  0  0  0
 18 39  1  0  0  0  0
 19 40  1  0  0  0  0
 19 41  1  0  0  0  0
 19 20  1  0  0  0  0
 20 42  1  0  0  0  0
 20 22  1  0  0  0  0
 20 21  1  0  0  0  0
 21 43  1  0  0  0  0
 21 44  1  0  0  0  0
 21 45  1  0  0  0  0
 22 46  1  0  0  0  0
 22 47  1  0  0  0  0
 22 48  1  0  0  0  0
M  ZZC   1 n1
M  ZZC   2 c1
M  ZZC   3 o1
M  ZZC   4 c2
M  ZZC   5 n2
M  ZZC   6 c3
M  ZZC   7 o2
M  ZZC   8 c4
M  ZZC   9 o3
M  ZZC  10 c5
M  ZZC  11 n3
M  ZZC  12 c6
M  ZZC  13 c7
M  ZZC  14 c8
M  ZZC  15 c9
M  ZZC  16 c10
M  ZZC  17 c11
M  ZZC  18 c12
M  ZZC  19 c13
M  ZZC  20 c14
M  ZZC  21 c15
M  ZZC  22 c16
M  ZZC  23 h11
M  ZZC  24 h12
M  ZZC  25 h21
M  ZZC  26 h01
M  ZZC  27 h41
M  ZZC  28 h31
M  ZZC  29 h51
M  ZZC  30 h02
M  ZZC  31 h32
M  ZZC  32 h33
M  ZZC  33 h61
M  ZZC  34 h62
M  ZZC  35 h81
M  ZZC  36 h91
M  ZZC  37 h101
M  ZZC  38 h111
M  ZZC  39 h121
M  ZZC  40 h131
M  ZZC  41 h132
M  ZZC  42 h141
M  ZZC  43 h151
M  ZZC  44 h152
M  ZZC  45 h153
M  ZZC  46 h161
M  ZZC  47 h162
M  ZZC  48 h163
M  ZZM   1 10
M  ZZI   1 212
M  ZZM   2 3
M  ZZI   2 121
M  ZZM   3 7
M  ZZI   3 81
M  ZZM   4 1
M  ZZI   4 113
M  ZZM   5 10
M  ZZI   5 211
M  ZZM   6 3
M  ZZI   6 121
M  ZZM   7 7
M  ZZI   7 81
M  ZZM   8 1
M  ZZI   8 113
M  ZZM   9 6
M  ZZI   9 60
M  ZZM  10 1
M  ZZI  10 113
M  ZZM  11 34
M  ZZI  11 231
M  ZZM  12 1
M  ZZI  12 112
M  ZZM  13 37
M  ZZI  13 124
M  ZZM  14 37
M  ZZI  14 125
M  ZZM  15 37
M  ZZI  15 125
M  ZZM  16 37
M  ZZI  16 125
M  ZZM  17 37
M  ZZI  17 125
M  ZZM  18 37
M  ZZI  18 125
M  ZZM  19 1
M  ZZI  19 112
M  ZZM  20 1
M  ZZI  20 113
M  ZZM  21 1
M  ZZI  21 111
M  ZZM  22 1
M  ZZI  22 111
M  ZZM  23 28
M  ZZI  23 11
M  ZZM  24 28
M  ZZI  24 11
M  ZZM  25 5
M  ZZI  25 1
M  ZZM  26 28
M  ZZI  26 11
M  ZZM  27 5
M  ZZI  27 1
M  ZZM  28 21
M  ZZI  28 20
M  ZZM  29 5
M  ZZI  29 1
M  ZZM  30 36
M  ZZI  30 17
M  ZZM  31 36
M  ZZI  31 17
M  ZZM  32 36
M  ZZI  32 17
M  ZZM  33 5
M  ZZI  33 1
M  ZZM  34 5
M  ZZI  34 1
M  ZZM  35 5
M  ZZI  35 1
M  ZZM  36 5
M  ZZI  36 1
M  ZZM  37 5
M  ZZI  37 1
M  ZZM  38 5
M  ZZI  38 1
M  ZZM  39 5
M  ZZI  39 1
M  ZZM  40 5
M  ZZI  40 1
M  ZZM  41 5
M  ZZI  41 1
M  ZZM  42 5
M  ZZI  42 1
M  ZZM  43 5
M  ZZI  43 1
M  ZZM  44 5
M  ZZI  44 1
M  ZZM  45 5
M  ZZI  45 1
M  ZZM  46 5
M  ZZI  46 1
M  ZZM  47 5
M  ZZI  47 1
M  ZZM  48 5
M  ZZI  48 1
M  CHG  1  11   1
M  END
> <IX>
1

> <NAME>
IAPBIR2_3K6P_21.pdb

> <Score>
-35.116995

> <Natom>
48

> <Nflex>
9

> <Hbond>
-10.021956

> <Hphob>
-3.087809

> <VwInt>
-44.290618

> <Dsolv>
16.603131

> <SolEl>
22.272239

> <Eintl>
6.743296

> <RecConf>
ND

> <projPath>
IAPBIR2_maps/

> <NAME_>
IAPBIR2_3K6P_21.pdb

$$$$
