IAPBIR2_6QGH_2.pdb
  MOLSOFT 04032206373D

 69 72  0  0  1  0  0  0  0  0999 V2000
   28.0960   27.4696    7.0368 C   0  0  0  0  0  0  0  0  0  0  0  0
   27.6379   26.1982    7.3422 C   0  0  0  0  0  0  0  0  0  0  0  0
   26.7068   25.5712    6.5126 C   0  0  0  0  0  0  0  0  0  0  0  0
   26.1521   24.2044    6.7693 C   0  0  0  0  0  0  0  0  0  0  0  0
   25.7588   23.5622    5.8022 O   0  0  0  0  0  0  0  0  0  0  0  0
   26.0456   23.6743    8.1232 C   0  0  0  0  0  0  0  0  0  0  0  0
   26.4717   24.3715    9.2313 N   0  0  0  0  0  0  0  0  0  0  0  0
   26.2201   23.7130   10.3428 C   0  0  0  0  0  0  0  0  0  0  0  0
   26.6205   24.2455   11.6890 C   0  0  1  0  0  0  0  0  0  0  0  0
   26.2333   23.3966   12.8098 N   0  0  0  0  0  0  0  0  0  0  0  0
   24.9446   23.4401   13.3460 C   0  0  0  0  0  0  0  0  0  0  0  0
   24.0421   24.0477   12.7908 O   0  0  0  0  0  0  0  0  0  0  0  0
   24.7095   22.7524   14.6949 C   0  0  2  0  0  0  0  0  0  0  0  0
   23.2768   22.5103   14.8682 N   0  0  0  0  0  0  0  0  0  0  0  0
   22.7058   21.2692   14.6617 C   0  0  0  0  0  0  0  0  0  0  0  0
   23.3235   20.3195   14.2013 O   0  0  0  0  0  0  0  0  0  0  0  0
   21.2249   21.1687   15.0414 C   0  0  1  0  0  0  0  0  0  0  0  0
   20.6656   19.7999   14.6955 N   0  3  0  0  0  0  0  0  0  0  0  0
   19.2481   19.5302   15.0807 C   0  0  0  0  0  0  0  0  0  0  0  0
   21.0340   21.4348   16.5362 C   0  0  0  0  0  0  0  0  0  0  0  0
   25.2818   23.5684   15.8774 C   0  0  0  0  0  0  0  0  0  0  0  0
   24.6587   24.9599   16.0477 C   0  0  0  0  0  0  0  0  0  0  0  0
   25.3105   25.7024   17.2050 C   0  0  0  0  0  0  0  0  0  0  0  0
   25.2732   24.9180   18.5045 C   0  0  0  0  0  0  0  0  0  0  0  0
   25.8359   23.5166   18.3428 C   0  0  0  0  0  0  0  0  0  0  0  0
   25.1743   22.7782   17.1877 C   0  0  0  0  0  0  0  0  0  0  0  0
   27.3719   22.6435   13.3107 C   0  0  0  0  0  0  0  0  0  0  0  0
   28.5028   22.9500   12.3491 C   0  0  0  0  0  0  0  0  0  0  0  0
   28.1352   24.3220   11.8201 C   0  0  0  0  0  0  0  0  0  0  0  0
   25.4439   22.1932   10.1103 S   0  0  0  0  0  0  0  0  0  0  0  0
   25.4804   22.4477    8.4207 C   0  0  0  0  0  0  0  0  0  0  0  0
   26.2789   26.2308    5.3627 C   0  0  0  0  0  0  0  0  0  0  0  0
   26.7448   27.5007    5.0654 C   0  0  0  0  0  0  0  0  0  0  0  0
   27.6478   28.1224    5.9043 C   0  0  0  0  0  0  0  0  0  0  0  0
   28.8081   27.9628    7.6904 H   0  0  0  0  0  0  0  0  0  0  0  0
   28.0302   25.7144    8.2287 H   0  0  0  0  0  0  0  0  0  0  0  0
   26.1780   25.2380   11.8145 H   0  0  0  0  0  0  0  0  0  0  0  0
   25.2059   21.7777   14.6576 H   0  0  0  0  0  0  0  0  0  0  0  0
   22.6849   23.3159   15.0443 H   0  0  0  0  0  0  0  0  0  0  0  0
   20.6696   21.8961   14.4422 H   0  0  0  0  0  0  0  0  0  0  0  0
   20.7340   19.6774   13.6754 H   0  0  0  0  0  0  0  0  0  0  0  0
   21.2733   19.0677   15.0874 H   0  0  0  0  0  0  0  0  0  0  0  0
   19.1945   19.4305   16.1672 H   0  0  0  0  0  0  0  0  0  0  0  0
   18.9566   18.5940   14.5987 H   0  0  0  0  0  0  0  0  0  0  0  0
   18.6280   20.3551   14.7264 H   0  0  0  0  0  0  0  0  0  0  0  0
   21.4532   20.6253   17.1412 H   0  0  0  0  0  0  0  0  0  0  0  0
   19.9743   21.5378   16.7888 H   0  0  0  0  0  0  0  0  0  0  0  0
   21.5300   22.3549   16.8535 H   0  0  0  0  0  0  0  0  0  0  0  0
   26.3449   23.7371   15.6936 H   0  0  0  0  0  0  0  0  0  0  0  0
   24.7766   25.5549   15.1385 H   0  0  0  0  0  0  0  0  0  0  0  0
   23.5833   24.8903   16.2303 H   0  0  0  0  0  0  0  0  0  0  0  0
   26.3468   25.9468   16.9497 H   0  0  0  0  0  0  0  0  0  0  0  0
   24.7948   26.6443   17.3634 H   0  0  0  0  0  0  0  0  0  0  0  0
   25.8318   25.4561   19.2745 H   0  0  0  0  0  0  0  0  0  0  0  0
   24.2405   24.8536   18.8582 H   0  0  0  0  0  0  0  0  0  0  0  0
   26.9157   23.5756   18.1693 H   0  0  0  0  0  0  0  0  0  0  0  0
   25.6956   22.9553   19.2720 H   0  0  0  0  0  0  0  0  0  0  0  0
   24.1237   22.5943   17.4385 H   0  0  0  0  0  0  0  0  0  0  0  0
   25.6464   21.7966   17.0763 H   0  0  0  0  0  0  0  0  0  0  0  0
   27.6262   22.9933   14.3129 H   0  0  0  0  0  0  0  0  0  0  0  0
   27.1349   21.5761   13.3624 H   0  0  0  0  0  0  0  0  0  0  0  0
   29.4834   22.9283   12.8343 H   0  0  0  0  0  0  0  0  0  0  0  0
   28.5182   22.2189   11.5332 H   0  0  0  0  0  0  0  0  0  0  0  0
   28.6571   24.5686   10.8894 H   0  0  0  0  0  0  0  0  0  0  0  0
   28.4046   25.0787   12.5665 H   0  0  0  0  0  0  0  0  0  0  0  0
   25.0729   21.7089    7.7456 H   0  0  0  0  0  0  0  0  0  0  0  0
   25.5524   25.7740    4.6969 H   0  0  0  0  0  0  0  0  0  0  0  0
   26.3835   28.0163    4.1817 H   0  0  0  0  0  0  0  0  0  0  0  0
   27.9984   29.1244    5.6793 H   0  0  0  0  0  0  0  0  0  0  0  0
  1 35  1  0  0  0  0
  1  2  1  0  0  0  0
  1 34  2  0  0  0  0
  2 36  1  0  0  0  0
  2  3  2  0  0  0  0
  3 32  1  0  0  0  0
  3  4  1  0  0  0  0
  4  5  2  0  0  0  0
  4  6  1  0  0  0  0
  6 31  2  0  0  0  0
  6  7  1  0  0  0  0
  7  8  2  0  0  0  0
  8 30  1  0  0  0  0
  9  8  1  0  0  0  0
  9 37  1  0  0  0  0
  9 29  1  0  0  0  0
  9 10  1  0  0  0  0
 10 27  1  0  0  0  0
 10 11  1  0  0  0  0
 11 12  2  0  0  0  0
 13 11  1  0  0  0  0
 13 38  1  0  0  0  0
 13 14  1  0  0  0  0
 13 21  1  0  0  0  0
 14 39  1  0  0  0  0
 14 15  1  0  0  0  0
 15 16  2  0  0  0  0
 17 15  1  0  0  0  0
 17 40  1  0  0  0  0
 17 20  1  0  0  0  0
 17 18  1  0  0  0  0
 18 41  1  0  0  0  0
 18 42  1  0  0  0  0
 18 19  1  0  0  0  0
 19 43  1  0  0  0  0
 19 44  1  0  0  0  0
 19 45  1  0  0  0  0
 20 46  1  0  0  0  0
 20 47  1  0  0  0  0
 20 48  1  0  0  0  0
 21 49  1  0  0  0  0
 21 22  1  0  0  0  0
 21 26  1  0  0  0  0
 22 50  1  0  0  0  0
 22 51  1  0  0  0  0
 22 23  1  0  0  0  0
 23 52  1  0  0  0  0
 23 53  1  0  0  0  0
 23 24  1  0  0  0  0
 24 54  1  0  0  0  0
 24 55  1  0  0  0  0
 24 25  1  0  0  0  0
 25 56  1  0  0  0  0
 25 57  1  0  0  0  0
 25 26  1  0  0  0  0
 26 58  1  0  0  0  0
 26 59  1  0  0  0  0
 27 28  1  0  0  0  0
 27 60  1  0  0  0  0
 27 61  1  0  0  0  0
 28 29  1  0  0  0  0
 28 62  1  0  0  0  0
 28 63  1  0  0  0  0
 29 64  1  0  0  0  0
 29 65  1  0  0  0  0
 30 31  1  0  0  0  0
 31 66  1  0  0  0  0
 32 67  1  0  0  0  0
 32 33  2  0  0  0  0
 33 68  1  0  0  0  0
 33 34  1  0  0  0  0
 34 69  1  0  0  0  0
M  ZZC   1 c1
M  ZZC   2 c2
M  ZZC   3 c3
M  ZZC   4 c4
M  ZZC   5 o1
M  ZZC   6 c5
M  ZZC   7 n1
M  ZZC   8 c6
M  ZZC   9 c7
M  ZZC  10 n2
M  ZZC  11 c8
M  ZZC  12 o2
M  ZZC  13 c9
M  ZZC  14 n3
M  ZZC  15 c10
M  ZZC  16 o3
M  ZZC  17 c11
M  ZZC  18 n4
M  ZZC  19 c12
M  ZZC  20 c13
M  ZZC  21 c14
M  ZZC  22 c15
M  ZZC  23 c16
M  ZZC  24 c17
M  ZZC  25 c18
M  ZZC  26 c19
M  ZZC  27 c20
M  ZZC  28 c21
M  ZZC  29 c22
M  ZZC  30 s1
M  ZZC  31 c23
M  ZZC  32 c24
M  ZZC  33 c25
M  ZZC  34 c26
M  ZZC  35 h11
M  ZZC  36 h21
M  ZZC  37 h71
M  ZZC  38 h91
M  ZZC  39 h31
M  ZZC  40 h111
M  ZZC  41 h41
M  ZZC  42 h42
M  ZZC  43 h121
M  ZZC  44 h122
M  ZZC  45 h123
M  ZZC  46 h131
M  ZZC  47 h132
M  ZZC  48 h133
M  ZZC  49 h141
M  ZZC  50 h151
M  ZZC  51 h152
M  ZZC  52 h161
M  ZZC  53 h162
M  ZZC  54 h171
M  ZZC  55 h172
M  ZZC  56 h181
M  ZZC  57 h182
M  ZZC  58 h191
M  ZZC  59 h192
M  ZZC  60 h201
M  ZZC  61 h202
M  ZZC  62 h211
M  ZZC  63 h212
M  ZZC  64 h221
M  ZZC  65 h222
M  ZZC  66 h231
M  ZZC  67 h241
M  ZZC  68 h251
M  ZZC  69 h261
M  ZZM   1 37
M  ZZI   1 125
M  ZZM   2 37
M  ZZI   2 125
M  ZZM   3 37
M  ZZI   3 124
M  ZZM   4 3
M  ZZI   4 122
M  ZZM   5 7
M  ZZI   5 80
M  ZZM   6 64
M  ZZI   6 105
M  ZZM   7 66
M  ZZI   7 222
M  ZZM   8 63
M  ZZI   8 104
M  ZZM   9 1
M  ZZI   9 113
M  ZZM  10 10
M  ZZI  10 192
M  ZZM  11 3
M  ZZI  11 121
M  ZZM  12 7
M  ZZI  12 81
M  ZZM  13 1
M  ZZI  13 113
M  ZZM  14 10
M  ZZI  14 211
M  ZZM  15 3
M  ZZI  15 121
M  ZZM  16 7
M  ZZI  16 81
M  ZZM  17 1
M  ZZI  17 113
M  ZZM  18 34
M  ZZI  18 231
M  ZZM  19 1
M  ZZI  19 111
M  ZZM  20 1
M  ZZI  20 111
M  ZZM  21 1
M  ZZI  21 113
M  ZZM  22 1
M  ZZI  22 112
M  ZZM  23 1
M  ZZI  23 112
M  ZZM  24 1
M  ZZI  24 112
M  ZZM  25 1
M  ZZI  25 112
M  ZZM  26 1
M  ZZI  26 112
M  ZZM  27 1
M  ZZI  27 112
M  ZZM  28 1
M  ZZI  28 112
M  ZZM  29 1
M  ZZI  29 112
M  ZZM  30 44
M  ZZI  30 248
M  ZZM  31 63
M  ZZI  31 104
M  ZZM  32 37
M  ZZI  32 125
M  ZZM  33 37
M  ZZI  33 125
M  ZZM  34 37
M  ZZI  34 125
M  ZZM  35 5
M  ZZI  35 1
M  ZZM  36 5
M  ZZI  36 1
M  ZZM  37 5
M  ZZI  37 1
M  ZZM  38 5
M  ZZI  38 1
M  ZZM  39 28
M  ZZI  39 11
M  ZZM  40 5
M  ZZI  40 1
M  ZZM  41 36
M  ZZI  41 17
M  ZZM  42 36
M  ZZI  42 17
M  ZZM  43 5
M  ZZI  43 1
M  ZZM  44 5
M  ZZI  44 1
M  ZZM  45 5
M  ZZI  45 1
M  ZZM  46 5
M  ZZI  46 1
M  ZZM  47 5
M  ZZI  47 1
M  ZZM  48 5
M  ZZI  48 1
M  ZZM  49 5
M  ZZI  49 1
M  ZZM  50 5
M  ZZI  50 1
M  ZZM  51 5
M  ZZI  51 1
M  ZZM  52 5
M  ZZI  52 1
M  ZZM  53 5
M  ZZI  53 1
M  ZZM  54 5
M  ZZI  54 1
M  ZZM  55 5
M  ZZI  55 1
M  ZZM  56 5
M  ZZI  56 1
M  ZZM  57 5
M  ZZI  57 1
M  ZZM  58 5
M  ZZI  58 1
M  ZZM  59 5
M  ZZI  59 1
M  ZZM  60 5
M  ZZI  60 1
M  ZZM  61 5
M  ZZI  61 1
M  ZZM  62 5
M  ZZI  62 1
M  ZZM  63 5
M  ZZI  63 1
M  ZZM  64 5
M  ZZI  64 1
M  ZZM  65 5
M  ZZI  65 1
M  ZZM  66 5
M  ZZI  66 1
M  ZZM  67 5
M  ZZI  67 1
M  ZZM  68 5
M  ZZI  68 1
M  ZZM  69 5
M  ZZI  69 1
M  CHG  1  18   1
M  END
> <IX>
1

> <NAME>
IAPBIR2_6QGH_2.pdb

> <Score>
-10.128683

> <Natom>
69

> <Nflex>
8

> <Hbond>
-1.194177

> <Hphob>
-5.510858

> <VwInt>
-49.771462

> <Dsolv>
14.319616

> <SolEl>
39.394502

> <Eintl>
8.027065

> <RecConf>
ND

> <projPath>
IAPBIR2_maps/

> <NAME_>
IAPBIR2_6QGH_2.pdb

$$$$
