IAPBIR2_6RNA_1.pdb
  MOLSOFT 04032206383D

 78 81  0  0  1  0  0  0  0  0999 V2000
   26.0704   24.4439   18.9938 C   0  0  0  0  0  0  0  0  0  0  0  0
   25.3038   23.3733   18.5718 C   0  0  0  0  0  0  0  0  0  0  0  0
   24.6073   23.4224   17.3674 C   0  0  0  0  0  0  0  0  0  0  0  0
   24.7103   24.5664   16.5802 C   0  0  0  0  0  0  0  0  0  0  0  0
   25.4948   25.6284   17.0064 C   0  0  0  0  0  0  0  0  0  0  0  0
   26.1649   25.5765   18.2103 C   0  0  0  0  0  0  0  0  0  0  0  0
   23.9175   24.7168   15.3217 C   0  0  0  0  0  0  0  0  0  0  0  0
   23.3937   23.3960   14.7589 C   0  0  1  0  0  0  0  0  0  0  0  0
   24.4262   22.6972   13.8674 C   0  0  0  0  0  0  0  0  0  0  0  0
   25.0730   21.7218   14.2231 O   0  0  0  0  0  0  0  0  0  0  0  0
   24.5754   23.2888   12.6262 N   0  0  0  0  0  0  0  0  0  0  0  0
   25.5054   22.7933   11.6243 C   0  0  2  0  0  0  0  0  0  0  0  0
   26.6777   23.7288   11.4243 C   0  0  0  0  0  0  0  0  0  0  0  0
   27.1652   24.0294   10.1453 C   0  0  0  0  0  0  0  0  0  0  0  0
   28.3073   24.8106   10.0148 C   0  0  0  0  0  0  0  0  0  0  0  0
   28.9896   25.2648   11.1268 C   0  0  0  0  0  0  0  0  0  0  0  0
   28.5102   24.9794   12.3890 C   0  0  0  0  0  0  0  0  0  0  0  0
   27.3652   24.2222   12.5336 C   0  0  0  0  0  0  0  0  0  0  0  0
   26.4752   23.5452    8.8986 C   0  0  0  0  0  0  0  0  0  0  0  0
   25.6617   22.2894    9.1577 C   0  0  0  0  0  0  0  0  0  0  0  0
   24.7382   22.5081   10.3376 C   0  0  0  0  0  0  0  0  0  0  0  0
   22.9005   22.4754   15.7989 N   0  0  0  0  0  0  0  0  0  0  0  0
   21.7562   21.7242   15.5088 C   0  0  0  0  0  0  0  0  0  0  0  0
   21.0739   21.9959   14.5343 O   0  0  0  0  0  0  0  0  0  0  0  0
   21.3736   20.5566   16.4420 C   0  0  1  0  0  0  0  0  0  0  0  0
   20.7501   21.0922   17.6576 N   0  0  0  0  0  0  0  0  0  0  0  0
   21.0831   20.6097   18.9115 C   0  0  0  0  0  0  0  0  0  0  0  0
   22.0231   19.8573   19.1265 O   0  0  0  0  0  0  0  0  0  0  0  0
   20.1578   21.0763   20.0317 C   0  0  1  0  0  0  0  0  0  0  0  0
   20.0069   20.0407   21.1312 N   0  3  0  0  0  0  0  0  0  0  0  0
   19.4339   18.7258   20.7059 C   0  0  0  0  0  0  0  0  0  0  0  0
   20.7250   22.3418   20.6536 C   0  0  0  0  0  0  0  0  0  0  0  0
   20.4365   19.4906   15.7895 C   0  0  0  0  0  0  0  0  0  0  0  0
   21.0175   18.9730   14.4663 C   0  0  0  0  0  0  0  0  0  0  0  0
   20.2902   18.2719   16.7153 C   0  0  0  0  0  0  0  0  0  0  0  0
   19.0303   20.0532   15.5356 C   0  0  0  0  0  0  0  0  0  0  0  0
   23.7586   22.2476   16.9623 C   0  0  0  0  0  0  0  0  0  0  0  0
   26.5962   24.3933   19.9417 H   0  0  0  0  0  0  0  0  0  0  0  0
   25.2380   22.4934   19.2045 H   0  0  0  0  0  0  0  0  0  0  0  0
   25.5750   26.5195   16.3957 H   0  0  0  0  0  0  0  0  0  0  0  0
   26.7579   26.4248   18.5365 H   0  0  0  0  0  0  0  0  0  0  0  0
   23.0724   25.3717   15.5533 H   0  0  0  0  0  0  0  0  0  0  0  0
   24.5325   25.2343   14.5844 H   0  0  0  0  0  0  0  0  0  0  0  0
   22.5641   23.6448   14.0889 H   0  0  0  0  0  0  0  0  0  0  0  0
   23.9984   24.0815   12.3772 H   0  0  0  0  0  0  0  0  0  0  0  0
   25.9212   21.8415   11.9738 H   0  0  0  0  0  0  0  0  0  0  0  0
   28.6864   25.0595    9.0283 H   0  0  0  0  0  0  0  0  0  0  0  0
   29.8963   25.8496   11.0070 H   0  0  0  0  0  0  0  0  0  0  0  0
   29.0373   25.3381   13.2674 H   0  0  0  0  0  0  0  0  0  0  0  0
   27.0270   23.9915   13.5390 H   0  0  0  0  0  0  0  0  0  0  0  0
   25.8243   24.3430    8.5244 H   0  0  0  0  0  0  0  0  0  0  0  0
   27.2098   23.3330    8.1149 H   0  0  0  0  0  0  0  0  0  0  0  0
   25.0777   22.0359    8.2677 H   0  0  0  0  0  0  0  0  0  0  0  0
   26.3224   21.4387    9.3588 H   0  0  0  0  0  0  0  0  0  0  0  0
   24.1091   21.6272   10.4723 H   0  0  0  0  0  0  0  0  0  0  0  0
   24.0566   23.3319   10.1208 H   0  0  0  0  0  0  0  0  0  0  0  0
   22.3057   20.0528   16.7185 H   0  0  0  0  0  0  0  0  0  0  0  0
   19.9935   21.7620   17.5529 H   0  0  0  0  0  0  0  0  0  0  0  0
   19.1520   21.2635   19.6374 H   0  0  0  0  0  0  0  0  0  0  0  0
   20.9182   19.8755   21.5815 H   0  0  0  0  0  0  0  0  0  0  0  0
   19.3917   20.4301   21.8583 H   0  0  0  0  0  0  0  0  0  0  0  0
   19.2379   18.1437   21.6102 H   0  0  0  0  0  0  0  0  0  0  0  0
   20.1619   18.2086   20.0767 H   0  0  0  0  0  0  0  0  0  0  0  0
   18.5034   18.9123   20.1635 H   0  0  0  0  0  0  0  0  0  0  0  0
   20.0975   22.6837   21.4782 H   0  0  0  0  0  0  0  0  0  0  0  0
   20.7825   23.1440   19.9158 H   0  0  0  0  0  0  0  0  0  0  0  0
   21.7375   22.1836   21.0383 H   0  0  0  0  0  0  0  0  0  0  0  0
   21.0101   19.7412   13.6935 H   0  0  0  0  0  0  0  0  0  0  0  0
   20.4347   18.1347   14.0706 H   0  0  0  0  0  0  0  0  0  0  0  0
   22.0489   18.6284   14.5889 H   0  0  0  0  0  0  0  0  0  0  0  0
   19.7300   17.4668   16.2301 H   0  0  0  0  0  0  0  0  0  0  0  0
   19.7508   18.5164   17.6338 H   0  0  0  0  0  0  0  0  0  0  0  0
   21.2648   17.8615   16.9973 H   0  0  0  0  0  0  0  0  0  0  0  0
   18.5254   20.3351   16.4633 H   0  0  0  0  0  0  0  0  0  0  0  0
   18.4047   19.3249   15.0175 H   0  0  0  0  0  0  0  0  0  0  0  0
   19.0458   20.9388   14.9075 H   0  0  0  0  0  0  0  0  0  0  0  0
   24.4003   21.3886   16.7402 H   0  0  0  0  0  0  0  0  0  0  0  0
   23.1318   21.9793   17.8121 H   0  0  0  0  0  0  0  0  0  0  0  0
  1 38  1  0  0  0  0
  1  2  1  0  0  0  0
  1  6  2  0  0  0  0
  2 39  1  0  0  0  0
  2  3  2  0  0  0  0
  3 37  1  0  0  0  0
  3  4  1  0  0  0  0
  4  7  1  0  0  0  0
  4  5  2  0  0  0  0
  5 40  1  0  0  0  0
  5  6  1  0  0  0  0
  6 41  1  0  0  0  0
  8  7  1  0  0  0  0
  7 42  1  0  0  0  0
  7 43  1  0  0  0  0
  8 22  1  0  0  0  0
  8 44  1  0  0  0  0
  8  9  1  0  0  0  0
  9 10  2  0  0  0  0
  9 11  1  0  0  0  0
 11 45  1  0  0  0  0
 12 11  1  0  0  0  0
 12 46  1  0  0  0  0
 12 13  1  0  0  0  0
 12 21  1  0  0  0  0
 13 14  2  0  0  0  0
 13 18  1  0  0  0  0
 14 19  1  0  0  0  0
 14 15  1  0  0  0  0
 15 47  1  0  0  0  0
 15 16  2  0  0  0  0
 16 48  1  0  0  0  0
 16 17  1  0  0  0  0
 17 49  1  0  0  0  0
 17 18  2  0  0  0  0
 18 50  1  0  0  0  0
 19 51  1  0  0  0  0
 19 52  1  0  0  0  0
 19 20  1  0  0  0  0
 20 53  1  0  0  0  0
 20 54  1  0  0  0  0
 20 21  1  0  0  0  0
 21 55  1  0  0  0  0
 21 56  1  0  0  0  0
 22 37  1  0  0  0  0
 22 23  1  0  0  0  0
 23 24  2  0  0  0  0
 25 23  1  0  0  0  0
 25 57  1  0  0  0  0
 25 33  1  0  0  0  0
 25 26  1  0  0  0  0
 26 58  1  0  0  0  0
 26 27  1  0  0  0  0
 27 28  2  0  0  0  0
 29 27  1  0  0  0  0
 29 59  1  0  0  0  0
 29 32  1  0  0  0  0
 29 30  1  0  0  0  0
 30 60  1  0  0  0  0
 30 61  1  0  0  0  0
 30 31  1  0  0  0  0
 31 62  1  0  0  0  0
 31 63  1  0  0  0  0
 31 64  1  0  0  0  0
 32 65  1  0  0  0  0
 32 66  1  0  0  0  0
 32 67  1  0  0  0  0
 33 34  1  0  0  0  0
 33 35  1  0  0  0  0
 33 36  1  0  0  0  0
 34 68  1  0  0  0  0
 34 69  1  0  0  0  0
 34 70  1  0  0  0  0
 35 71  1  0  0  0  0
 35 72  1  0  0  0  0
 35 73  1  0  0  0  0
 36 74  1  0  0  0  0
 36 75  1  0  0  0  0
 36 76  1  0  0  0  0
 37 77  1  0  0  0  0
 37 78  1  0  0  0  0
M  ZZC   1 c1
M  ZZC   2 c2
M  ZZC   3 c3
M  ZZC   4 c4
M  ZZC   5 c5
M  ZZC   6 c6
M  ZZC   7 c7
M  ZZC   8 c8
M  ZZC   9 c9
M  ZZC  10 o1
M  ZZC  11 n1
M  ZZC  12 c10
M  ZZC  13 c11
M  ZZC  14 c12
M  ZZC  15 c13
M  ZZC  16 c14
M  ZZC  17 c15
M  ZZC  18 c16
M  ZZC  19 c17
M  ZZC  20 c18
M  ZZC  21 c19
M  ZZC  22 n2
M  ZZC  23 c20
M  ZZC  24 o2
M  ZZC  25 c21
M  ZZC  26 n3
M  ZZC  27 c22
M  ZZC  28 o3
M  ZZC  29 c23
M  ZZC  30 n4
M  ZZC  31 c24
M  ZZC  32 c25
M  ZZC  33 c26
M  ZZC  34 c27
M  ZZC  35 c28
M  ZZC  36 c29
M  ZZC  37 c30
M  ZZC  38 h11
M  ZZC  39 h21
M  ZZC  40 h51
M  ZZC  41 h61
M  ZZC  42 h71
M  ZZC  43 h72
M  ZZC  44 h81
M  ZZC  45 h01
M  ZZC  46 h101
M  ZZC  47 h131
M  ZZC  48 h141
M  ZZC  49 h151
M  ZZC  50 h161
M  ZZC  51 h171
M  ZZC  52 h172
M  ZZC  53 h181
M  ZZC  54 h182
M  ZZC  55 h191
M  ZZC  56 h192
M  ZZC  57 h211
M  ZZC  58 h31
M  ZZC  59 h231
M  ZZC  60 h41
M  ZZC  61 h42
M  ZZC  62 h241
M  ZZC  63 h242
M  ZZC  64 h243
M  ZZC  65 h251
M  ZZC  66 h252
M  ZZC  67 h253
M  ZZC  68 h271
M  ZZC  69 h272
M  ZZC  70 h273
M  ZZC  71 h281
M  ZZC  72 h282
M  ZZC  73 h283
M  ZZC  74 h291
M  ZZC  75 h292
M  ZZC  76 h293
M  ZZC  77 h301
M  ZZC  78 h302
M  ZZM   1 37
M  ZZI   1 125
M  ZZM   2 37
M  ZZI   2 125
M  ZZM   3 37
M  ZZI   3 124
M  ZZM   4 37
M  ZZI   4 124
M  ZZM   5 37
M  ZZI   5 125
M  ZZM   6 37
M  ZZI   6 125
M  ZZM   7 1
M  ZZI   7 112
M  ZZM   8 1
M  ZZI   8 113
M  ZZM   9 3
M  ZZI   9 121
M  ZZM  10 7
M  ZZI  10 81
M  ZZM  11 10
M  ZZI  11 211
M  ZZM  12 1
M  ZZI  12 113
M  ZZM  13 37
M  ZZI  13 124
M  ZZM  14 37
M  ZZI  14 124
M  ZZM  15 37
M  ZZI  15 125
M  ZZM  16 37
M  ZZI  16 125
M  ZZM  17 37
M  ZZI  17 125
M  ZZM  18 37
M  ZZI  18 125
M  ZZM  19 1
M  ZZI  19 112
M  ZZM  20 1
M  ZZI  20 112
M  ZZM  21 1
M  ZZI  21 112
M  ZZM  22 10
M  ZZI  22 192
M  ZZM  23 3
M  ZZI  23 121
M  ZZM  24 7
M  ZZI  24 81
M  ZZM  25 1
M  ZZI  25 113
M  ZZM  26 10
M  ZZI  26 211
M  ZZM  27 3
M  ZZI  27 121
M  ZZM  28 7
M  ZZI  28 81
M  ZZM  29 1
M  ZZI  29 113
M  ZZM  30 34
M  ZZI  30 231
M  ZZM  31 1
M  ZZI  31 111
M  ZZM  32 1
M  ZZI  32 111
M  ZZM  33 1
M  ZZI  33 110
M  ZZM  34 1
M  ZZI  34 111
M  ZZM  35 1
M  ZZI  35 111
M  ZZM  36 1
M  ZZI  36 111
M  ZZM  37 1
M  ZZI  37 112
M  ZZM  38 5
M  ZZI  38 1
M  ZZM  39 5
M  ZZI  39 1
M  ZZM  40 5
M  ZZI  40 1
M  ZZM  41 5
M  ZZI  41 1
M  ZZM  42 5
M  ZZI  42 1
M  ZZM  43 5
M  ZZI  43 1
M  ZZM  44 5
M  ZZI  44 1
M  ZZM  45 28
M  ZZI  45 11
M  ZZM  46 5
M  ZZI  46 1
M  ZZM  47 5
M  ZZI  47 1
M  ZZM  48 5
M  ZZI  48 1
M  ZZM  49 5
M  ZZI  49 1
M  ZZM  50 5
M  ZZI  50 1
M  ZZM  51 5
M  ZZI  51 1
M  ZZM  52 5
M  ZZI  52 1
M  ZZM  53 5
M  ZZI  53 1
M  ZZM  54 5
M  ZZI  54 1
M  ZZM  55 5
M  ZZI  55 1
M  ZZM  56 5
M  ZZI  56 1
M  ZZM  57 5
M  ZZI  57 1
M  ZZM  58 28
M  ZZI  58 11
M  ZZM  59 5
M  ZZI  59 1
M  ZZM  60 36
M  ZZI  60 17
M  ZZM  61 36
M  ZZI  61 17
M  ZZM  62 5
M  ZZI  62 1
M  ZZM  63 5
M  ZZI  63 1
M  ZZM  64 5
M  ZZI  64 1
M  ZZM  65 5
M  ZZI  65 1
M  ZZM  66 5
M  ZZI  66 1
M  ZZM  67 5
M  ZZI  67 1
M  ZZM  68 5
M  ZZI  68 1
M  ZZM  69 5
M  ZZI  69 1
M  ZZM  70 5
M  ZZI  70 1
M  ZZM  71 5
M  ZZI  71 1
M  ZZM  72 5
M  ZZI  72 1
M  ZZM  73 5
M  ZZI  73 1
M  ZZM  74 5
M  ZZI  74 1
M  ZZM  75 5
M  ZZI  75 1
M  ZZM  76 5
M  ZZI  76 1
M  ZZM  77 5
M  ZZI  77 1
M  ZZM  78 5
M  ZZI  78 1
M  CHG  1  30   1
M  END
> <IX>
1

> <NAME>
IAPBIR2_6RNA_1.pdb

> <Score>
-14.929407

> <Natom>
78

> <Nflex>
8

> <Hbond>
-1.277623

> <Hphob>
-6.101843

> <VwInt>
-49.844799

> <Dsolv>
12.737153

> <SolEl>
32.729829

> <Eintl>
10.469103

> <RecConf>
ND

> <projPath>
IAPBIR2_maps/

> <NAME_>
IAPBIR2_6RNA_1.pdb

$$$$
