IAPBIR2_5P9J_21.pdb
  MOLSOFT 04032206413D

 82 85  0  0  1  0  0  0  0  0999 V2000
   22.7923   20.1903   19.2788 O   0  0  0  0  0  0  0  0  0  0  0  0
   22.1509   21.1547   18.8881 C   0  0  0  0  0  0  0  0  0  0  0  0
   22.1926   21.6297   17.5849 N   0  0  0  0  0  0  0  0  0  0  0  0
   22.9633   20.9725   16.5180 C   0  0  2  0  0  0  0  0  0  0  0  0
   23.4539   21.9701   15.4529 C   0  0  0  0  0  0  0  0  0  0  0  0
   23.4465   21.6773   14.2642 O   0  0  0  0  0  0  0  0  0  0  0  0
   23.9952   23.1848   15.8639 N   0  0  0  0  0  0  0  0  0  0  0  0
   24.1736   24.2483   14.8977 C   0  0  2  0  0  0  0  0  0  0  0  0
   25.4968   24.0783   14.1452 C   0  0  0  0  0  0  0  0  0  0  0  0
   26.5820   24.1101   14.7112 O   0  0  0  0  0  0  0  0  0  0  0  0
   25.3439   23.8730   12.7833 N   0  0  0  0  0  0  0  0  0  0  0  0
   26.4865   23.6763   11.8973 C   0  0  1  0  0  0  0  0  0  0  0  0
   26.0732   23.2428   10.5029 C   0  0  0  0  0  0  0  0  0  0  0  0
   26.6978   23.7496    9.3515 C   0  0  0  0  0  0  0  0  0  0  0  0
   26.3033   23.3105    8.0938 C   0  0  0  0  0  0  0  0  0  0  0  0
   25.3440   22.3316    7.9588 C   0  0  0  0  0  0  0  0  0  0  0  0
   24.7545   21.8027    9.0851 C   0  0  0  0  0  0  0  0  0  0  0  0
   25.1089   22.2509   10.3404 C   0  0  0  0  0  0  0  0  0  0  0  0
   27.7872   24.7816    9.4244 C   0  0  0  0  0  0  0  0  0  0  0  0
   28.4344   24.8095   10.7958 C   0  0  0  0  0  0  0  0  0  0  0  0
   27.3607   24.9321   11.8601 C   0  0  0  0  0  0  0  0  0  0  0  0
   24.1538   25.4960   15.7571 C   0  0  0  0  0  0  0  0  0  0  0  0
   24.7469   25.0830   17.0956 C   0  0  2  0  0  0  0  0  0  0  0  0
   26.1551   25.4446   17.1423 N   0  0  0  0  0  0  0  0  0  0  0  0
   26.7242   26.1133   18.2069 C   0  0  0  0  0  0  0  0  0  0  0  0
   26.1755   26.3354   19.2760 O   0  0  0  0  0  0  0  0  0  0  0  0
   28.1260   26.5707   17.9182 C   0  0  0  0  0  0  0  0  0  0  0  0
   24.5014   23.5744   17.1728 C   0  0  0  0  0  0  0  0  0  0  0  0
   22.1355   19.8648   15.8170 C   0  0  0  0  0  0  0  0  0  0  0  0
   21.9803   18.6062   16.6770 C   0  0  0  0  0  0  0  0  0  0  0  0
   21.2306   17.5182   15.9261 C   0  0  0  0  0  0  0  0  0  0  0  0
   19.8650   18.0155   15.4900 C   0  0  0  0  0  0  0  0  0  0  0  0
   19.9578   19.2792   14.6555 C   0  0  0  0  0  0  0  0  0  0  0  0
   20.7637   20.3737   15.3357 C   0  0  0  0  0  0  0  0  0  0  0  0
   21.1937   21.9111   19.8180 C   0  0  1  0  0  0  0  0  0  0  0  0
   19.9271   21.1278   20.1106 N   0  3  0  0  0  0  0  0  0  0  0  0
   19.0384   20.8712   18.9368 C   0  0  0  0  0  0  0  0  0  0  0  0
   21.8815   22.2052   21.1447 C   0  0  0  0  0  0  0  0  0  0  0  0
   21.7212   22.4970   17.3524 H   0  0  0  0  0  0  0  0  0  0  0  0
   23.8605   20.5332   16.9680 H   0  0  0  0  0  0  0  0  0  0  0  0
   23.3397   24.2499   14.1848 H   0  0  0  0  0  0  0  0  0  0  0  0
   24.4107   23.7480   12.4028 H   0  0  0  0  0  0  0  0  0  0  0  0
   27.0814   22.8620   12.3283 H   0  0  0  0  0  0  0  0  0  0  0  0
   26.7605   23.7245    7.2003 H   0  0  0  0  0  0  0  0  0  0  0  0
   25.0624   21.9761    6.9729 H   0  0  0  0  0  0  0  0  0  0  0  0
   24.0137   21.0241    8.9820 H   0  0  0  0  0  0  0  0  0  0  0  0
   24.6317   21.7969   11.2033 H   0  0  0  0  0  0  0  0  0  0  0  0
   28.5580   24.5720    8.6753 H   0  0  0  0  0  0  0  0  0  0  0  0
   27.3602   25.7616    9.1869 H   0  0  0  0  0  0  0  0  0  0  0  0
   29.0208   23.8985   10.9614 H   0  0  0  0  0  0  0  0  0  0  0  0
   29.1354   25.6464   10.8559 H   0  0  0  0  0  0  0  0  0  0  0  0
   26.7396   25.8120   11.6644 H   0  0  0  0  0  0  0  0  0  0  0  0
   27.8367   25.1061   12.8293 H   0  0  0  0  0  0  0  0  0  0  0  0
   24.6847   26.3378   15.3152 H   0  0  0  0  0  0  0  0  0  0  0  0
   23.1125   25.7866   15.8972 H   0  0  0  0  0  0  0  0  0  0  0  0
   24.2414   25.6030   17.9153 H   0  0  0  0  0  0  0  0  0  0  0  0
   26.7319   25.2006   16.3380 H   0  0  0  0  0  0  0  0  0  0  0  0
   28.7593   25.7051   17.7019 H   0  0  0  0  0  0  0  0  0  0  0  0
   28.5289   27.0947   18.7914 H   0  0  0  0  0  0  0  0  0  0  0  0
   28.1293   27.2427   17.0546 H   0  0  0  0  0  0  0  0  0  0  0  0
   23.7874   23.3293   17.9560 H   0  0  0  0  0  0  0  0  0  0  0  0
   25.4135   23.0041   17.3773 H   0  0  0  0  0  0  0  0  0  0  0  0
   22.6887   19.5423   14.9274 H   0  0  0  0  0  0  0  0  0  0  0  0
   22.9642   18.2278   16.9731 H   0  0  0  0  0  0  0  0  0  0  0  0
   21.4331   18.8270   17.5971 H   0  0  0  0  0  0  0  0  0  0  0  0
   21.8079   17.2022   15.0501 H   0  0  0  0  0  0  0  0  0  0  0  0
   21.1144   16.6381   16.5663 H   0  0  0  0  0  0  0  0  0  0  0  0
   19.3551   17.2359   14.9161 H   0  0  0  0  0  0  0  0  0  0  0  0
   19.2611   18.2190   16.3792 H   0  0  0  0  0  0  0  0  0  0  0  0
   20.4185   19.0358   13.6928 H   0  0  0  0  0  0  0  0  0  0  0  0
   18.9481   19.6487   14.4539 H   0  0  0  0  0  0  0  0  0  0  0  0
   20.1775   20.7670   16.1705 H   0  0  0  0  0  0  0  0  0  0  0  0
   20.8821   21.2070   14.6359 H   0  0  0  0  0  0  0  0  0  0  0  0
   20.8787   22.8528   19.3680 H   0  0  0  0  0  0  0  0  0  0  0  0
   20.1636   20.2308   20.5570 H   0  0  0  0  0  0  0  0  0  0  0  0
   19.3676   21.6364   20.8101 H   0  0  0  0  0  0  0  0  0  0  0  0
   18.1074   20.4436   19.3141 H   0  0  0  0  0  0  0  0  0  0  0  0
   19.5337   20.1567   18.2782 H   0  0  0  0  0  0  0  0  0  0  0  0
   18.8397   21.8164   18.4262 H   0  0  0  0  0  0  0  0  0  0  0  0
   22.1843   21.2879   21.6590 H   0  0  0  0  0  0  0  0  0  0  0  0
   21.2194   22.7587   21.8150 H   0  0  0  0  0  0  0  0  0  0  0  0
   22.7817   22.8074   20.9857 H   0  0  0  0  0  0  0  0  0  0  0  0
  1  2  2  0  0  0  0
  2  3  1  0  0  0  0
 35  2  1  0  0  0  0
  4  3  1  0  0  0  0
  3 39  1  0  0  0  0
  4  5  1  0  0  0  0
  4 40  1  0  0  0  0
  4 29  1  0  0  0  0
  5  7  1  0  0  0  0
  5  6  2  0  0  0  0
  7 28  1  0  0  0  0
  8  7  1  0  0  0  0
  8  9  1  0  0  0  0
  8 41  1  0  0  0  0
  8 22  1  0  0  0  0
  9 11  1  0  0  0  0
  9 10  2  0  0  0  0
 12 11  1  0  0  0  0
 11 42  1  0  0  0  0
 12 13  1  0  0  0  0
 12 43  1  0  0  0  0
 12 21  1  0  0  0  0
 13 18  1  0  0  0  0
 13 14  2  0  0  0  0
 14 19  1  0  0  0  0
 14 15  1  0  0  0  0
 15 44  1  0  0  0  0
 15 16  2  0  0  0  0
 16 45  1  0  0  0  0
 16 17  1  0  0  0  0
 17 46  1  0  0  0  0
 17 18  2  0  0  0  0
 18 47  1  0  0  0  0
 19 20  1  0  0  0  0
 19 48  1  0  0  0  0
 19 49  1  0  0  0  0
 20 21  1  0  0  0  0
 20 50  1  0  0  0  0
 20 51  1  0  0  0  0
 21 52  1  0  0  0  0
 21 53  1  0  0  0  0
 22 54  1  0  0  0  0
 22 55  1  0  0  0  0
 23 22  1  0  0  0  0
 23 56  1  0  0  0  0
 23 24  1  0  0  0  0
 23 28  1  0  0  0  0
 24 57  1  0  0  0  0
 24 25  1  0  0  0  0
 25 26  2  0  0  0  0
 25 27  1  0  0  0  0
 27 58  1  0  0  0  0
 27 59  1  0  0  0  0
 27 60  1  0  0  0  0
 28 61  1  0  0  0  0
 28 62  1  0  0  0  0
 29 63  1  0  0  0  0
 29 30  1  0  0  0  0
 29 34  1  0  0  0  0
 30 64  1  0  0  0  0
 30 65  1  0  0  0  0
 30 31  1  0  0  0  0
 31 66  1  0  0  0  0
 31 67  1  0  0  0  0
 31 32  1  0  0  0  0
 32 68  1  0  0  0  0
 32 69  1  0  0  0  0
 32 33  1  0  0  0  0
 33 70  1  0  0  0  0
 33 71  1  0  0  0  0
 33 34  1  0  0  0  0
 34 72  1  0  0  0  0
 34 73  1  0  0  0  0
 35 74  1  0  0  0  0
 35 38  1  0  0  0  0
 35 36  1  0  0  0  0
 36 75  1  0  0  0  0
 36 76  1  0  0  0  0
 36 37  1  0  0  0  0
 37 77  1  0  0  0  0
 37 78  1  0  0  0  0
 37 79  1  0  0  0  0
 38 80  1  0  0  0  0
 38 81  1  0  0  0  0
 38 82  1  0  0  0  0
M  ZZC   1 o1
M  ZZC   2 c1
M  ZZC   3 n1
M  ZZC   4 c2
M  ZZC   5 c3
M  ZZC   6 o2
M  ZZC   7 n2
M  ZZC   8 c4
M  ZZC   9 c5
M  ZZC  10 o3
M  ZZC  11 n3
M  ZZC  12 c6
M  ZZC  13 c7
M  ZZC  14 c8
M  ZZC  15 c9
M  ZZC  16 c10
M  ZZC  17 c11
M  ZZC  18 c12
M  ZZC  19 c13
M  ZZC  20 c14
M  ZZC  21 c15
M  ZZC  22 c16
M  ZZC  23 c17
M  ZZC  24 n4
M  ZZC  25 c18
M  ZZC  26 o4
M  ZZC  27 c19
M  ZZC  28 c20
M  ZZC  29 c21
M  ZZC  30 c22
M  ZZC  31 c23
M  ZZC  32 c24
M  ZZC  33 c25
M  ZZC  34 c26
M  ZZC  35 c27
M  ZZC  36 n5
M  ZZC  37 c28
M  ZZC  38 c29
M  ZZC  39 h11
M  ZZC  40 h21
M  ZZC  41 h41
M  ZZC  42 h31
M  ZZC  43 h61
M  ZZC  44 h91
M  ZZC  45 h101
M  ZZC  46 h111
M  ZZC  47 h121
M  ZZC  48 h131
M  ZZC  49 h132
M  ZZC  50 h141
M  ZZC  51 h142
M  ZZC  52 h151
M  ZZC  53 h152
M  ZZC  54 h161
M  ZZC  55 h162
M  ZZC  56 h171
M  ZZC  57 h01
M  ZZC  58 h191
M  ZZC  59 h192
M  ZZC  60 h193
M  ZZC  61 h201
M  ZZC  62 h202
M  ZZC  63 h211
M  ZZC  64 h221
M  ZZC  65 h222
M  ZZC  66 h231
M  ZZC  67 h232
M  ZZC  68 h241
M  ZZC  69 h242
M  ZZC  70 h251
M  ZZC  71 h252
M  ZZC  72 h261
M  ZZC  73 h262
M  ZZC  74 h271
M  ZZC  75 h51
M  ZZC  76 h52
M  ZZC  77 h281
M  ZZC  78 h282
M  ZZC  79 h283
M  ZZC  80 h291
M  ZZC  81 h292
M  ZZC  82 h293
M  ZZM   1 7
M  ZZI   1 81
M  ZZM   2 3
M  ZZI   2 121
M  ZZM   3 10
M  ZZI   3 211
M  ZZM   4 1
M  ZZI   4 113
M  ZZM   5 3
M  ZZI   5 121
M  ZZM   6 7
M  ZZI   6 81
M  ZZM   7 10
M  ZZI   7 192
M  ZZM   8 1
M  ZZI   8 113
M  ZZM   9 3
M  ZZI   9 121
M  ZZM  10 7
M  ZZI  10 81
M  ZZM  11 10
M  ZZI  11 211
M  ZZM  12 1
M  ZZI  12 113
M  ZZM  13 37
M  ZZI  13 124
M  ZZM  14 37
M  ZZI  14 124
M  ZZM  15 37
M  ZZI  15 125
M  ZZM  16 37
M  ZZI  16 125
M  ZZM  17 37
M  ZZI  17 125
M  ZZM  18 37
M  ZZI  18 125
M  ZZM  19 1
M  ZZI  19 112
M  ZZM  20 1
M  ZZI  20 112
M  ZZM  21 1
M  ZZI  21 112
M  ZZM  22 1
M  ZZI  22 112
M  ZZM  23 1
M  ZZI  23 113
M  ZZM  24 10
M  ZZI  24 211
M  ZZM  25 3
M  ZZI  25 121
M  ZZM  26 7
M  ZZI  26 81
M  ZZM  27 1
M  ZZI  27 111
M  ZZM  28 1
M  ZZI  28 112
M  ZZM  29 1
M  ZZI  29 113
M  ZZM  30 1
M  ZZI  30 112
M  ZZM  31 1
M  ZZI  31 112
M  ZZM  32 1
M  ZZI  32 112
M  ZZM  33 1
M  ZZI  33 112
M  ZZM  34 1
M  ZZI  34 112
M  ZZM  35 1
M  ZZI  35 113
M  ZZM  36 34
M  ZZI  36 231
M  ZZM  37 1
M  ZZI  37 111
M  ZZM  38 1
M  ZZI  38 111
M  ZZM  39 28
M  ZZI  39 11
M  ZZM  40 5
M  ZZI  40 1
M  ZZM  41 5
M  ZZI  41 1
M  ZZM  42 28
M  ZZI  42 11
M  ZZM  43 5
M  ZZI  43 1
M  ZZM  44 5
M  ZZI  44 1
M  ZZM  45 5
M  ZZI  45 1
M  ZZM  46 5
M  ZZI  46 1
M  ZZM  47 5
M  ZZI  47 1
M  ZZM  48 5
M  ZZI  48 1
M  ZZM  49 5
M  ZZI  49 1
M  ZZM  50 5
M  ZZI  50 1
M  ZZM  51 5
M  ZZI  51 1
M  ZZM  52 5
M  ZZI  52 1
M  ZZM  53 5
M  ZZI  53 1
M  ZZM  54 5
M  ZZI  54 1
M  ZZM  55 5
M  ZZI  55 1
M  ZZM  56 5
M  ZZI  56 1
M  ZZM  57 28
M  ZZI  57 11
M  ZZM  58 5
M  ZZI  58 1
M  ZZM  59 5
M  ZZI  59 1
M  ZZM  60 5
M  ZZI  60 1
M  ZZM  61 5
M  ZZI  61 1
M  ZZM  62 5
M  ZZI  62 1
M  ZZM  63 5
M  ZZI  63 1
M  ZZM  64 5
M  ZZI  64 1
M  ZZM  65 5
M  ZZI  65 1
M  ZZM  66 5
M  ZZI  66 1
M  ZZM  67 5
M  ZZI  67 1
M  ZZM  68 5
M  ZZI  68 1
M  ZZM  69 5
M  ZZI  69 1
M  ZZM  70 5
M  ZZI  70 1
M  ZZM  71 5
M  ZZI  71 1
M  ZZM  72 5
M  ZZI  72 1
M  ZZM  73 5
M  ZZI  73 1
M  ZZM  74 5
M  ZZI  74 1
M  ZZM  75 36
M  ZZI  75 17
M  ZZM  76 36
M  ZZI  76 17
M  ZZM  77 5
M  ZZI  77 1
M  ZZM  78 5
M  ZZI  78 1
M  ZZM  79 5
M  ZZI  79 1
M  ZZM  80 5
M  ZZI  80 1
M  ZZM  81 5
M  ZZI  81 1
M  ZZM  82 5
M  ZZI  82 1
M  CHG  1  36   1
M  END
> <IX>
1

> <NAME>
IAPBIR2_5P9J_21.pdb

> <Score>
-9.317165

> <Natom>
82

> <Nflex>
9

> <Hbond>
-3.623607

> <Hphob>
-5.740161

> <VwInt>
-46.374029

> <Dsolv>
17.00076

> <SolEl>
32.315733

> <Eintl>
17.652572

> <RecConf>
ND

> <projPath>
IAPBIR2_maps/

> <NAME_>
IAPBIR2_5P9J_21.pdb

$$$$
