IAPBIR2_6W8L_10.pdb
  MOLSOFT 04032206403D

 82 85  0  0  1  0  0  0  0  0999 V2000
   19.8871   50.6383   22.6118 C   0  0  0  0  0  0  0  0  0  0  0  0
   18.3978   50.4428   22.5171 C   0  0  0  0  0  0  0  0  0  0  0  0
   17.6703   50.3846   23.4994 O   0  0  0  0  0  0  0  0  0  0  0  0
   17.9777   50.2972   21.2171 N   0  0  0  0  0  0  0  0  0  0  0  0
   16.5909   50.1807   20.8143 C   0  0  2  0  0  0  0  0  0  0  0  0
   15.8666   48.9223   21.2659 C   0  0  0  0  0  0  0  0  0  0  0  0
   14.6985   48.9124   20.4088 N   0  0  0  0  0  0  0  0  0  0  0  0
   13.3719   48.6006   20.7223 C   0  0  0  0  0  0  0  0  0  0  0  0
   12.4688   48.9345   19.9672 O   0  0  0  0  0  0  0  0  0  0  0  0
   13.0869   47.7532   21.9769 C   0  0  1  0  0  0  0  0  0  0  0  0
   13.5549   48.4707   23.1686 N   0  0  0  0  0  0  0  0  0  0  0  0
   13.0154   49.6413   23.6735 C   0  0  0  0  0  0  0  0  0  0  0  0
   12.0830   50.2449   23.1644 O   0  0  0  0  0  0  0  0  0  0  0  0
   13.7332   50.1383   24.9369 C   0  0  1  0  0  0  0  0  0  0  0  0
   15.0304   50.8806   24.6434 N   0  3  0  0  0  0  0  0  0  0  0  0
   14.9248   52.0964   23.7756 C   0  0  0  0  0  0  0  0  0  0  0  0
   12.8235   51.0090   25.8004 C   0  0  0  0  0  0  0  0  0  0  0  0
   11.5991   47.3059   22.0791 C   0  0  0  0  0  0  0  0  0  0  0  0
   11.1436   46.4172   20.9037 C   0  0  0  0  0  0  0  0  0  0  0  0
   11.6532   44.9900   20.9930 C   0  0  0  0  0  0  0  0  0  0  0  0
   11.2452   44.3524   22.3028 C   0  0  0  0  0  0  0  0  0  0  0  0
   11.7512   45.1552   23.4795 C   0  0  0  0  0  0  0  0  0  0  0  0
   11.2671   46.5994   23.4071 C   0  0  0  0  0  0  0  0  0  0  0  0
   15.0053   49.5702   19.1426 C   0  0  2  0  0  0  0  0  0  0  0  0
   14.9418   48.5848   17.9820 C   0  0  0  0  0  0  0  0  0  0  0  0
   14.5387   47.4382   18.1033 O   0  0  0  0  0  0  0  0  0  0  0  0
   15.3464   49.1178   16.7754 N   0  0  0  0  0  0  0  0  0  0  0  0
   15.3230   48.3322   15.5560 C   0  0  1  0  0  0  0  0  0  0  0  0
   14.2113   48.8105   14.6557 C   0  0  0  0  0  0  0  0  0  0  0  0
   14.4701   49.4143   13.4197 C   0  0  0  0  0  0  0  0  0  0  0  0
   13.4038   49.8001   12.6140 C   0  0  0  0  0  0  0  0  0  0  0  0
   12.0974   49.6255   13.0316 C   0  0  0  0  0  0  0  0  0  0  0  0
   11.8389   49.0550   14.2619 C   0  0  0  0  0  0  0  0  0  0  0  0
   12.8872   48.6481   15.0647 C   0  0  0  0  0  0  0  0  0  0  0  0
   15.8758   49.6066   12.9187 C   0  0  0  0  0  0  0  0  0  0  0  0
   16.8870   49.6008   14.0528 C   0  0  0  0  0  0  0  0  0  0  0  0
   16.6959   48.3535   14.8965 C   0  0  0  0  0  0  0  0  0  0  0  0
   16.4202   50.0989   19.3104 C   0  0  0  0  0  0  0  0  0  0  0  0
   20.2488   51.2506   21.7795 H   0  0  0  0  0  0  0  0  0  0  0  0
   20.3885   49.6673   22.5855 H   0  0  0  0  0  0  0  0  0  0  0  0
   20.1307   51.1520   23.5447 H   0  0  0  0  0  0  0  0  0  0  0  0
   18.6863   50.2554   20.4936 H   0  0  0  0  0  0  0  0  0  0  0  0
   16.0684   51.0653   21.1946 H   0  0  0  0  0  0  0  0  0  0  0  0
   16.4463   48.0158   21.0723 H   0  0  0  0  0  0  0  0  0  0  0  0
   15.6294   48.9534   22.3221 H   0  0  0  0  0  0  0  0  0  0  0  0
   13.7262   46.8678   21.9011 H   0  0  0  0  0  0  0  0  0  0  0  0
   14.3355   48.0579   23.6631 H   0  0  0  0  0  0  0  0  0  0  0  0
   14.0354   49.2662   25.5240 H   0  0  0  0  0  0  0  0  0  0  0  0
   15.4709   51.1562   25.5309 H   0  0  0  0  0  0  0  0  0  0  0  0
   15.7237   50.2396   24.2165 H   0  0  0  0  0  0  0  0  0  0  0  0
   15.9360   52.4841   23.6267 H   0  0  0  0  0  0  0  0  0  0  0  0
   14.3132   52.8437   24.2873 H   0  0  0  0  0  0  0  0  0  0  0  0
   14.4837   51.8089   22.8179 H   0  0  0  0  0  0  0  0  0  0  0  0
   13.3406   51.3482   26.7033 H   0  0  0  0  0  0  0  0  0  0  0  0
   11.9405   50.4432   26.1126 H   0  0  0  0  0  0  0  0  0  0  0  0
   12.4608   51.8900   25.2632 H   0  0  0  0  0  0  0  0  0  0  0  0
   10.9829   48.2105   22.0419 H   0  0  0  0  0  0  0  0  0  0  0  0
   10.0484   46.3891   20.8917 H   0  0  0  0  0  0  0  0  0  0  0  0
   11.4331   46.8308   19.9357 H   0  0  0  0  0  0  0  0  0  0  0  0
   11.2510   44.4000   20.1656 H   0  0  0  0  0  0  0  0  0  0  0  0
   12.7427   44.9750   20.8990 H   0  0  0  0  0  0  0  0  0  0  0  0
   10.1568   44.2455   22.3548 H   0  0  0  0  0  0  0  0  0  0  0  0
   11.6646   43.3554   22.3527 H   0  0  0  0  0  0  0  0  0  0  0  0
   11.4173   44.6916   24.4129 H   0  0  0  0  0  0  0  0  0  0  0  0
   12.8401   45.1094   23.4848 H   0  0  0  0  0  0  0  0  0  0  0  0
   11.6524   47.1582   24.2632 H   0  0  0  0  0  0  0  0  0  0  0  0
   10.1789   46.5958   23.5332 H   0  0  0  0  0  0  0  0  0  0  0  0
   14.2874   50.3807   18.9681 H   0  0  0  0  0  0  0  0  0  0  0  0
   15.6060   50.0964   16.7117 H   0  0  0  0  0  0  0  0  0  0  0  0
   15.1150   47.2897   15.8149 H   0  0  0  0  0  0  0  0  0  0  0  0
   13.5896   50.2447   11.6411 H   0  0  0  0  0  0  0  0  0  0  0  0
   11.2764   49.9332   12.3922 H   0  0  0  0  0  0  0  0  0  0  0  0
   10.8151   48.9128   14.5925 H   0  0  0  0  0  0  0  0  0  0  0  0
   12.6618   48.1866   16.0220 H   0  0  0  0  0  0  0  0  0  0  0  0
   16.1047   48.8007   12.2129 H   0  0  0  0  0  0  0  0  0  0  0  0
   15.9592   50.5534   12.3750 H   0  0  0  0  0  0  0  0  0  0  0  0
   17.8980   49.6251   13.6389 H   0  0  0  0  0  0  0  0  0  0  0  0
   16.7792   50.4984   14.6718 H   0  0  0  0  0  0  0  0  0  0  0  0
   17.4881   48.2837   15.6507 H   0  0  0  0  0  0  0  0  0  0  0  0
   16.7882   47.4758   14.2493 H   0  0  0  0  0  0  0  0  0  0  0  0
   16.5303   51.0653   18.8208 H   0  0  0  0  0  0  0  0  0  0  0  0
   17.1656   49.4249   18.8673 H   0  0  0  0  0  0  0  0  0  0  0  0
  1 39  1  0  0  0  0
  1 40  1  0  0  0  0
  1 41  1  0  0  0  0
  1  2  1  0  0  0  0
  2  3  2  0  0  0  0
  2  4  1  0  0  0  0
  4 42  1  0  0  0  0
  5  4  1  0  0  0  0
  5 43  1  0  0  0  0
  5 38  1  0  0  0  0
  5  6  1  0  0  0  0
  6  7  1  0  0  0  0
  6 44  1  0  0  0  0
  6 45  1  0  0  0  0
 24  7  1  0  0  0  0
  7  8  1  0  0  0  0
  8  9  2  0  0  0  0
 10  8  1  0  0  0  0
 10 46  1  0  0  0  0
 10 11  1  0  0  0  0
 10 18  1  0  0  0  0
 11 47  1  0  0  0  0
 11 12  1  0  0  0  0
 12 13  2  0  0  0  0
 14 12  1  0  0  0  0
 14 48  1  0  0  0  0
 14 17  1  0  0  0  0
 14 15  1  0  0  0  0
 15 49  1  0  0  0  0
 15 50  1  0  0  0  0
 15 16  1  0  0  0  0
 16 51  1  0  0  0  0
 16 52  1  0  0  0  0
 16 53  1  0  0  0  0
 17 54  1  0  0  0  0
 17 55  1  0  0  0  0
 17 56  1  0  0  0  0
 18 57  1  0  0  0  0
 18 19  1  0  0  0  0
 18 23  1  0  0  0  0
 19 58  1  0  0  0  0
 19 59  1  0  0  0  0
 19 20  1  0  0  0  0
 20 60  1  0  0  0  0
 20 61  1  0  0  0  0
 20 21  1  0  0  0  0
 21 62  1  0  0  0  0
 21 63  1  0  0  0  0
 21 22  1  0  0  0  0
 22 64  1  0  0  0  0
 22 65  1  0  0  0  0
 22 23  1  0  0  0  0
 23 66  1  0  0  0  0
 23 67  1  0  0  0  0
 24 38  1  0  0  0  0
 24 68  1  0  0  0  0
 24 25  1  0  0  0  0
 25 26  2  0  0  0  0
 25 27  1  0  0  0  0
 27 69  1  0  0  0  0
 28 27  1  0  0  0  0
 28 70  1  0  0  0  0
 28 29  1  0  0  0  0
 28 37  1  0  0  0  0
 29 30  2  0  0  0  0
 29 34  1  0  0  0  0
 30 35  1  0  0  0  0
 30 31  1  0  0  0  0
 31 71  1  0  0  0  0
 31 32  2  0  0  0  0
 32 72  1  0  0  0  0
 32 33  1  0  0  0  0
 33 73  1  0  0  0  0
 33 34  2  0  0  0  0
 34 74  1  0  0  0  0
 35 75  1  0  0  0  0
 35 76  1  0  0  0  0
 35 36  1  0  0  0  0
 36 77  1  0  0  0  0
 36 78  1  0  0  0  0
 36 37  1  0  0  0  0
 37 79  1  0  0  0  0
 37 80  1  0  0  0  0
 38 81  1  0  0  0  0
 38 82  1  0  0  0  0
M  ZZC   1 c1
M  ZZC   2 c2
M  ZZC   3 o1
M  ZZC   4 n1
M  ZZC   5 c3
M  ZZC   6 c4
M  ZZC   7 n2
M  ZZC   8 c5
M  ZZC   9 o2
M  ZZC  10 c6
M  ZZC  11 n3
M  ZZC  12 c7
M  ZZC  13 o3
M  ZZC  14 c8
M  ZZC  15 n4
M  ZZC  16 c9
M  ZZC  17 c10
M  ZZC  18 c11
M  ZZC  19 c12
M  ZZC  20 c13
M  ZZC  21 c14
M  ZZC  22 c15
M  ZZC  23 c16
M  ZZC  24 c17
M  ZZC  25 c18
M  ZZC  26 o4
M  ZZC  27 n5
M  ZZC  28 c19
M  ZZC  29 c20
M  ZZC  30 c21
M  ZZC  31 c22
M  ZZC  32 c23
M  ZZC  33 c24
M  ZZC  34 c25
M  ZZC  35 c26
M  ZZC  36 c27
M  ZZC  37 c28
M  ZZC  38 c29
M  ZZC  39 h11
M  ZZC  40 h12
M  ZZC  41 h13
M  ZZC  42 h01
M  ZZC  43 h31
M  ZZC  44 h41
M  ZZC  45 h42
M  ZZC  46 h61
M  ZZC  47 h02
M  ZZC  48 h81
M  ZZC  49 h03
M  ZZC  50 h04
M  ZZC  51 h91
M  ZZC  52 h92
M  ZZC  53 h93
M  ZZC  54 h101
M  ZZC  55 h102
M  ZZC  56 h103
M  ZZC  57 h111
M  ZZC  58 h121
M  ZZC  59 h122
M  ZZC  60 h131
M  ZZC  61 h132
M  ZZC  62 h141
M  ZZC  63 h142
M  ZZC  64 h151
M  ZZC  65 h152
M  ZZC  66 h161
M  ZZC  67 h162
M  ZZC  68 h171
M  ZZC  69 h51
M  ZZC  70 h191
M  ZZC  71 h221
M  ZZC  72 h231
M  ZZC  73 h241
M  ZZC  74 h251
M  ZZC  75 h261
M  ZZC  76 h262
M  ZZC  77 h271
M  ZZC  78 h272
M  ZZC  79 h281
M  ZZC  80 h282
M  ZZC  81 h291
M  ZZC  82 h292
M  ZZM   1 1
M  ZZI   1 111
M  ZZM   2 3
M  ZZI   2 121
M  ZZM   3 7
M  ZZI   3 81
M  ZZM   4 10
M  ZZI   4 211
M  ZZM   5 1
M  ZZI   5 113
M  ZZM   6 1
M  ZZI   6 112
M  ZZM   7 10
M  ZZI   7 192
M  ZZM   8 3
M  ZZI   8 121
M  ZZM   9 7
M  ZZI   9 81
M  ZZM  10 1
M  ZZI  10 113
M  ZZM  11 10
M  ZZI  11 211
M  ZZM  12 3
M  ZZI  12 121
M  ZZM  13 7
M  ZZI  13 81
M  ZZM  14 1
M  ZZI  14 113
M  ZZM  15 34
M  ZZI  15 231
M  ZZM  16 1
M  ZZI  16 111
M  ZZM  17 1
M  ZZI  17 111
M  ZZM  18 1
M  ZZI  18 113
M  ZZM  19 1
M  ZZI  19 112
M  ZZM  20 1
M  ZZI  20 112
M  ZZM  21 1
M  ZZI  21 112
M  ZZM  22 1
M  ZZI  22 112
M  ZZM  23 1
M  ZZI  23 112
M  ZZM  24 1
M  ZZI  24 113
M  ZZM  25 3
M  ZZI  25 121
M  ZZM  26 7
M  ZZI  26 81
M  ZZM  27 10
M  ZZI  27 211
M  ZZM  28 1
M  ZZI  28 113
M  ZZM  29 37
M  ZZI  29 124
M  ZZM  30 37
M  ZZI  30 124
M  ZZM  31 37
M  ZZI  31 125
M  ZZM  32 37
M  ZZI  32 125
M  ZZM  33 37
M  ZZI  33 125
M  ZZM  34 37
M  ZZI  34 125
M  ZZM  35 1
M  ZZI  35 112
M  ZZM  36 1
M  ZZI  36 112
M  ZZM  37 1
M  ZZI  37 112
M  ZZM  38 1
M  ZZI  38 112
M  ZZM  39 5
M  ZZI  39 1
M  ZZM  40 5
M  ZZI  40 1
M  ZZM  41 5
M  ZZI  41 1
M  ZZM  42 28
M  ZZI  42 11
M  ZZM  43 5
M  ZZI  43 1
M  ZZM  44 5
M  ZZI  44 1
M  ZZM  45 5
M  ZZI  45 1
M  ZZM  46 5
M  ZZI  46 1
M  ZZM  47 28
M  ZZI  47 11
M  ZZM  48 5
M  ZZI  48 1
M  ZZM  49 36
M  ZZI  49 17
M  ZZM  50 36
M  ZZI  50 17
M  ZZM  51 5
M  ZZI  51 1
M  ZZM  52 5
M  ZZI  52 1
M  ZZM  53 5
M  ZZI  53 1
M  ZZM  54 5
M  ZZI  54 1
M  ZZM  55 5
M  ZZI  55 1
M  ZZM  56 5
M  ZZI  56 1
M  ZZM  57 5
M  ZZI  57 1
M  ZZM  58 5
M  ZZI  58 1
M  ZZM  59 5
M  ZZI  59 1
M  ZZM  60 5
M  ZZI  60 1
M  ZZM  61 5
M  ZZI  61 1
M  ZZM  62 5
M  ZZI  62 1
M  ZZM  63 5
M  ZZI  63 1
M  ZZM  64 5
M  ZZI  64 1
M  ZZM  65 5
M  ZZI  65 1
M  ZZM  66 5
M  ZZI  66 1
M  ZZM  67 5
M  ZZI  67 1
M  ZZM  68 5
M  ZZI  68 1
M  ZZM  69 28
M  ZZI  69 11
M  ZZM  70 5
M  ZZI  70 1
M  ZZM  71 5
M  ZZI  71 1
M  ZZM  72 5
M  ZZI  72 1
M  ZZM  73 5
M  ZZI  73 1
M  ZZM  74 5
M  ZZI  74 1
M  ZZM  75 5
M  ZZI  75 1
M  ZZM  76 5
M  ZZI  76 1
M  ZZM  77 5
M  ZZI  77 1
M  ZZM  78 5
M  ZZI  78 1
M  ZZM  79 5
M  ZZI  79 1
M  ZZM  80 5
M  ZZI  80 1
M  ZZM  81 5
M  ZZI  81 1
M  ZZM  82 5
M  ZZI  82 1
M  CHG  1  15   1
M  END
> <IX>
1

> <NAME>
IAPBIR2_6W8L_10.pdb

> <Score>
-19.467938

> <Natom>
82

> <Nflex>
9

> <Hbond>
-3.28022

> <Hphob>
-5.491063

> <VwInt>
-52.433909

> <Dsolv>
13.42359

> <SolEl>
29.698819

> <Eintl>
16.458377

> <RecConf>
ND

> <projPath>
IAPBIR2_maps/

> <NAME_>
IAPBIR2_6W8L_10.pdb

$$$$
