IAPBIR2_4QNQ_63.pdb
  MOLSOFT 04032206373D

 71 74  0  0  1  0  0  0  0  0999 V2000
    7.8886   45.3713   11.4410 O   0  0  0  0  0  0  0  0  0  0  0  0
    8.5224   46.1063   12.4294 C   0  0  0  0  0  0  0  0  0  0  0  0
    8.5428   45.6095   13.7166 C   0  0  0  0  0  0  0  0  0  0  0  0
    9.1821   46.3064   14.7380 C   0  0  0  0  0  0  0  0  0  0  0  0
    9.7897   47.5359   14.4479 C   0  0  0  0  0  0  0  0  0  0  0  0
   10.5202   48.3295   15.5055 C   0  0  2  0  0  0  0  0  0  0  0  0
   11.9474   48.1059   15.3837 N   0  0  0  0  0  0  0  0  0  0  0  0
   12.9083   49.0630   15.6559 C   0  0  0  0  0  0  0  0  0  0  0  0
   12.6612   50.2417   15.8703 O   0  0  0  0  0  0  0  0  0  0  0  0
   14.3162   48.4579   15.7351 C   0  0  1  0  0  0  0  0  0  0  0  0
   15.3661   49.0328   14.7672 C   0  0  0  0  0  0  0  0  0  0  0  0
   16.2752   47.9076   14.2697 C   0  0  0  0  0  0  0  0  0  0  0  0
   14.7898   49.7381   13.5316 C   0  0  0  0  0  0  0  0  0  0  0  0
   16.1588   50.0027   15.6458 C   0  0  0  0  0  0  0  0  0  0  0  0
   16.0839   49.4296   17.0524 C   0  0  1  0  0  0  0  0  0  0  0  0
   16.0118   50.5224   17.9670 O   0  0  0  0  0  0  0  0  0  0  0  0
   16.3996   50.1843   19.3016 C   0  0  0  0  0  0  0  0  0  0  0  0
   15.2817   49.4769   20.0382 C   0  0  0  0  0  0  0  0  0  0  0  0
   15.0430   48.0772   19.4885 C   0  0  1  0  0  0  0  0  0  0  0  0
   14.3812   47.2092   20.4620 N   0  0  0  0  0  0  0  0  0  0  0  0
   13.1686   47.5049   21.0706 C   0  0  0  0  0  0  0  0  0  0  0  0
   12.5294   48.5257   20.8634 O   0  0  0  0  0  0  0  0  0  0  0  0
   12.6483   46.4020   21.9969 C   0  0  2  0  0  0  0  0  0  0  0  0
   11.8055   45.3991   21.2364 N   0  3  0  0  0  0  0  0  0  0  0  0
   11.4458   44.1665   21.9985 C   0  0  0  0  0  0  0  0  0  0  0  0
   11.8253   46.9984   23.1371 C   0  0  0  0  0  0  0  0  0  0  0  0
   14.2858   48.0274   18.1611 C   0  0  0  0  0  0  0  0  0  0  0  0
   13.2412   47.4021   18.0476 O   0  0  0  0  0  0  0  0  0  0  0  0
   14.8501   48.6804   17.0728 N   0  0  0  0  0  0  0  0  0  0  0  0
   10.0563   47.9378   16.9111 C   0  0  0  0  0  0  0  0  0  0  0  0
   10.0977   46.4268   17.1008 C   0  0  0  0  0  0  0  0  0  0  0  0
    9.1525   45.7353   16.1329 C   0  0  0  0  0  0  0  0  0  0  0  0
    9.7529   48.0218   13.1413 C   0  0  0  0  0  0  0  0  0  0  0  0
    9.1231   47.3160   12.1320 C   0  0  0  0  0  0  0  0  0  0  0  0
    8.0393   45.8308   10.5965 H   0  0  0  0  0  0  0  0  0  0  0  0
    8.0540   44.6665   13.9251 H   0  0  0  0  0  0  0  0  0  0  0  0
   10.3226   49.3985   15.3671 H   0  0  0  0  0  0  0  0  0  0  0  0
   12.2345   47.1452   15.2599 H   0  0  0  0  0  0  0  0  0  0  0  0
   14.2354   47.3737   15.6003 H   0  0  0  0  0  0  0  0  0  0  0  0
   17.0397   48.3038   13.5994 H   0  0  0  0  0  0  0  0  0  0  0  0
   15.7137   47.1635   13.7003 H   0  0  0  0  0  0  0  0  0  0  0  0
   16.7781   47.3906   15.0905 H   0  0  0  0  0  0  0  0  0  0  0  0
   15.5909   50.0927   12.8749 H   0  0  0  0  0  0  0  0  0  0  0  0
   14.1878   50.6122   13.7943 H   0  0  0  0  0  0  0  0  0  0  0  0
   14.1611   49.0624   12.9435 H   0  0  0  0  0  0  0  0  0  0  0  0
   17.1996   50.1231   15.3234 H   0  0  0  0  0  0  0  0  0  0  0  0
   15.7144   51.0047   15.6239 H   0  0  0  0  0  0  0  0  0  0  0  0
   16.9330   48.7694   17.2685 H   0  0  0  0  0  0  0  0  0  0  0  0
   17.3290   49.6063   19.2961 H   0  0  0  0  0  0  0  0  0  0  0  0
   16.6019   51.1193   19.8272 H   0  0  0  0  0  0  0  0  0  0  0  0
   15.5544   49.4122   21.0977 H   0  0  0  0  0  0  0  0  0  0  0  0
   14.3674   50.0746   19.9627 H   0  0  0  0  0  0  0  0  0  0  0  0
   16.0073   47.6023   19.3051 H   0  0  0  0  0  0  0  0  0  0  0  0
   14.8727   46.3567   20.7042 H   0  0  0  0  0  0  0  0  0  0  0  0
   13.4956   45.8418   22.3932 H   0  0  0  0  0  0  0  0  0  0  0  0
   10.9500   45.8507   20.8832 H   0  0  0  0  0  0  0  0  0  0  0  0
   12.3209   45.1092   20.3961 H   0  0  0  0  0  0  0  0  0  0  0  0
   11.0866   43.4369   21.2710 H   0  0  0  0  0  0  0  0  0  0  0  0
   10.6563   44.4123   22.7135 H   0  0  0  0  0  0  0  0  0  0  0  0
   12.3399   43.8012   22.5103 H   0  0  0  0  0  0  0  0  0  0  0  0
   11.5663   46.2395   23.8810 H   0  0  0  0  0  0  0  0  0  0  0  0
   10.8949   47.4452   22.7731 H   0  0  0  0  0  0  0  0  0  0  0  0
   12.3872   47.7844   23.6513 H   0  0  0  0  0  0  0  0  0  0  0  0
   10.6825   48.4194   17.6695 H   0  0  0  0  0  0  0  0  0  0  0  0
    9.0325   48.2922   17.0780 H   0  0  0  0  0  0  0  0  0  0  0  0
   11.1137   46.0507   16.9493 H   0  0  0  0  0  0  0  0  0  0  0  0
    9.8295   46.1625   18.1285 H   0  0  0  0  0  0  0  0  0  0  0  0
    8.1279   45.8111   16.5127 H   0  0  0  0  0  0  0  0  0  0  0  0
    9.4135   44.6747   16.1046 H   0  0  0  0  0  0  0  0  0  0  0  0
   10.2313   48.9668   12.8995 H   0  0  0  0  0  0  0  0  0  0  0  0
    9.1113   47.7152   11.1233 H   0  0  0  0  0  0  0  0  0  0  0  0
  1 35  1  0  0  0  0
  1  2  1  0  0  0  0
  2  3  1  0  0  0  0
  2 34  2  0  0  0  0
  3 36  1  0  0  0  0
  3  4  2  0  0  0  0
  4 32  1  0  0  0  0
  4  5  1  0  0  0  0
  6  5  1  0  0  0  0
  5 33  2  0  0  0  0
  6 30  1  0  0  0  0
  6 37  1  0  0  0  0
  6  7  1  0  0  0  0
  7 38  1  0  0  0  0
  7  8  1  0  0  0  0
  8  9  2  0  0  0  0
 10  8  1  0  0  0  0
 10 39  1  0  0  0  0
 10 11  1  0  0  0  0
 10 29  1  0  0  0  0
 11 13  1  0  0  0  0
 11 12  1  0  0  0  0
 11 14  1  0  0  0  0
 12 40  1  0  0  0  0
 12 41  1  0  0  0  0
 12 42  1  0  0  0  0
 13 43  1  0  0  0  0
 13 44  1  0  0  0  0
 13 45  1  0  0  0  0
 14 46  1  0  0  0  0
 14 47  1  0  0  0  0
 15 14  1  0  0  0  0
 15 48  1  0  0  0  0
 15 29  1  0  0  0  0
 15 16  1  0  0  0  0
 16 17  1  0  0  0  0
 17 18  1  0  0  0  0
 17 49  1  0  0  0  0
 17 50  1  0  0  0  0
 19 18  1  0  0  0  0
 18 51  1  0  0  0  0
 18 52  1  0  0  0  0
 19 27  1  0  0  0  0
 19 53  1  0  0  0  0
 19 20  1  0  0  0  0
 20 54  1  0  0  0  0
 20 21  1  0  0  0  0
 21 22  2  0  0  0  0
 23 21  1  0  0  0  0
 23 55  1  0  0  0  0
 23 26  1  0  0  0  0
 23 24  1  0  0  0  0
 24 56  1  0  0  0  0
 24 57  1  0  0  0  0
 24 25  1  0  0  0  0
 25 58  1  0  0  0  0
 25 59  1  0  0  0  0
 25 60  1  0  0  0  0
 26 61  1  0  0  0  0
 26 62  1  0  0  0  0
 26 63  1  0  0  0  0
 27 29  1  0  0  0  0
 27 28  2  0  0  0  0
 30 31  1  0  0  0  0
 30 64  1  0  0  0  0
 30 65  1  0  0  0  0
 31 32  1  0  0  0  0
 31 66  1  0  0  0  0
 31 67  1  0  0  0  0
 32 68  1  0  0  0  0
 32 69  1  0  0  0  0
 33 70  1  0  0  0  0
 33 34  1  0  0  0  0
 34 71  1  0  0  0  0
M  ZZC   1 o1
M  ZZC   2 c1
M  ZZC   3 c2
M  ZZC   4 c3
M  ZZC   5 c4
M  ZZC   6 c5
M  ZZC   7 n1
M  ZZC   8 c6
M  ZZC   9 o2
M  ZZC  10 c7
M  ZZC  11 c8
M  ZZC  12 c9
M  ZZC  13 c10
M  ZZC  14 c11
M  ZZC  15 c12
M  ZZC  16 o3
M  ZZC  17 c13
M  ZZC  18 c14
M  ZZC  19 c15
M  ZZC  20 n2
M  ZZC  21 c16
M  ZZC  22 o4
M  ZZC  23 c17
M  ZZC  24 n3
M  ZZC  25 c18
M  ZZC  26 c19
M  ZZC  27 c20
M  ZZC  28 o5
M  ZZC  29 n4
M  ZZC  30 c21
M  ZZC  31 c22
M  ZZC  32 c23
M  ZZC  33 c24
M  ZZC  34 c25
M  ZZC  35 h11
M  ZZC  36 h21
M  ZZC  37 h51
M  ZZC  38 h01
M  ZZC  39 h71
M  ZZC  40 h91
M  ZZC  41 h92
M  ZZC  42 h93
M  ZZC  43 h101
M  ZZC  44 h102
M  ZZC  45 h103
M  ZZC  46 h111
M  ZZC  47 h112
M  ZZC  48 h121
M  ZZC  49 h131
M  ZZC  50 h132
M  ZZC  51 h141
M  ZZC  52 h142
M  ZZC  53 h151
M  ZZC  54 h02
M  ZZC  55 h171
M  ZZC  56 h31
M  ZZC  57 h32
M  ZZC  58 h181
M  ZZC  59 h182
M  ZZC  60 h183
M  ZZC  61 h191
M  ZZC  62 h192
M  ZZC  63 h193
M  ZZC  64 h211
M  ZZC  65 h212
M  ZZC  66 h221
M  ZZC  67 h222
M  ZZC  68 h231
M  ZZC  69 h232
M  ZZC  70 h241
M  ZZC  71 h251
M  ZZM   1 6
M  ZZI   1 62
M  ZZM   2 37
M  ZZI   2 124
M  ZZM   3 37
M  ZZI   3 125
M  ZZM   4 37
M  ZZI   4 124
M  ZZM   5 37
M  ZZI   5 124
M  ZZM   6 1
M  ZZI   6 113
M  ZZM   7 10
M  ZZI   7 211
M  ZZM   8 3
M  ZZI   8 121
M  ZZM   9 7
M  ZZI   9 81
M  ZZM  10 1
M  ZZI  10 113
M  ZZM  11 1
M  ZZI  11 110
M  ZZM  12 1
M  ZZI  12 111
M  ZZM  13 1
M  ZZI  13 111
M  ZZM  14 1
M  ZZI  14 112
M  ZZM  15 1
M  ZZI  15 113
M  ZZM  16 6
M  ZZI  16 65
M  ZZM  17 1
M  ZZI  17 112
M  ZZM  18 1
M  ZZI  18 112
M  ZZM  19 1
M  ZZI  19 113
M  ZZM  20 10
M  ZZI  20 211
M  ZZM  21 3
M  ZZI  21 121
M  ZZM  22 7
M  ZZI  22 81
M  ZZM  23 1
M  ZZI  23 113
M  ZZM  24 34
M  ZZI  24 231
M  ZZM  25 1
M  ZZI  25 111
M  ZZM  26 1
M  ZZI  26 111
M  ZZM  27 3
M  ZZI  27 121
M  ZZM  28 7
M  ZZI  28 81
M  ZZM  29 10
M  ZZI  29 192
M  ZZM  30 1
M  ZZI  30 112
M  ZZM  31 1
M  ZZI  31 112
M  ZZM  32 1
M  ZZI  32 112
M  ZZM  33 37
M  ZZI  33 125
M  ZZM  34 37
M  ZZI  34 125
M  ZZM  35 29
M  ZZI  35 27
M  ZZM  36 5
M  ZZI  36 1
M  ZZM  37 5
M  ZZI  37 1
M  ZZM  38 28
M  ZZI  38 11
M  ZZM  39 5
M  ZZI  39 1
M  ZZM  40 5
M  ZZI  40 1
M  ZZM  41 5
M  ZZI  41 1
M  ZZM  42 5
M  ZZI  42 1
M  ZZM  43 5
M  ZZI  43 1
M  ZZM  44 5
M  ZZI  44 1
M  ZZM  45 5
M  ZZI  45 1
M  ZZM  46 5
M  ZZI  46 1
M  ZZM  47 5
M  ZZI  47 1
M  ZZM  48 5
M  ZZI  48 1
M  ZZM  49 5
M  ZZI  49 1
M  ZZM  50 5
M  ZZI  50 1
M  ZZM  51 5
M  ZZI  51 1
M  ZZM  52 5
M  ZZI  52 1
M  ZZM  53 5
M  ZZI  53 1
M  ZZM  54 28
M  ZZI  54 11
M  ZZM  55 5
M  ZZI  55 1
M  ZZM  56 36
M  ZZI  56 17
M  ZZM  57 36
M  ZZI  57 17
M  ZZM  58 5
M  ZZI  58 1
M  ZZM  59 5
M  ZZI  59 1
M  ZZM  60 5
M  ZZI  60 1
M  ZZM  61 5
M  ZZI  61 1
M  ZZM  62 5
M  ZZI  62 1
M  ZZM  63 5
M  ZZI  63 1
M  ZZM  64 5
M  ZZI  64 1
M  ZZM  65 5
M  ZZI  65 1
M  ZZM  66 5
M  ZZI  66 1
M  ZZM  67 5
M  ZZI  67 1
M  ZZM  68 5
M  ZZI  68 1
M  ZZM  69 5
M  ZZI  69 1
M  ZZM  70 5
M  ZZI  70 1
M  ZZM  71 5
M  ZZI  71 1
M  CHG  1  24   1
M  END
> <IX>
1

> <NAME>
IAPBIR2_4QNQ_63.pdb

> <Score>
-14.427097

> <Natom>
71

> <Nflex>
5

> <Hbond>
-3.180686

> <Hphob>
-5.749689

> <VwInt>
-44.965896

> <Dsolv>
16.583838

> <SolEl>
32.05618

> <Eintl>
9.738784

> <RecConf>
ND

> <projPath>
IAPBIR2_maps/

> <NAME_>
IAPBIR2_4QNQ_63.pdb

$$$$
