IAPBIR2_4QNQ_70.pdb
  MOLSOFT 04032206373D

 71 74  0  0  1  0  0  0  0  0999 V2000
    7.4974   42.8908   25.3850 O   0  0  0  0  0  0  0  0  0  0  0  0
    8.1829   43.6129   24.4227 C   0  0  0  0  0  0  0  0  0  0  0  0
    9.5421   43.7877   24.5677 C   0  0  0  0  0  0  0  0  0  0  0  0
   10.2713   44.4945   23.6190 C   0  0  0  0  0  0  0  0  0  0  0  0
    9.5890   45.1763   22.6053 C   0  0  0  0  0  0  0  0  0  0  0  0
   10.2946   46.1794   21.7150 C   0  0  2  0  0  0  0  0  0  0  0  0
   10.2080   45.8155   20.3170 N   0  0  0  0  0  0  0  0  0  0  0  0
   10.2041   46.7910   19.3363 C   0  0  0  0  0  0  0  0  0  0  0  0
   10.1292   47.9905   19.5667 O   0  0  0  0  0  0  0  0  0  0  0  0
   10.2726   46.2106   17.9293 C   0  0  1  0  0  0  0  0  0  0  0  0
    8.8768   45.8760   17.3748 C   0  0  0  0  0  0  0  0  0  0  0  0
    8.3895   44.5178   17.8802 C   0  0  0  0  0  0  0  0  0  0  0  0
    7.8016   46.9279   17.7085 C   0  0  0  0  0  0  0  0  0  0  0  0
    9.1565   45.8658   15.8708 C   0  0  0  0  0  0  0  0  0  0  0  0
   10.1772   46.9757   15.6633 C   0  0  1  0  0  0  0  0  0  0  0  0
    9.5393   48.2165   15.3627 O   0  0  0  0  0  0  0  0  0  0  0  0
   10.4102   49.1350   14.6880 C   0  0  0  0  0  0  0  0  0  0  0  0
   11.5400   49.6496   15.5767 C   0  0  0  0  0  0  0  0  0  0  0  0
   12.5688   48.5744   15.9411 C   0  0  1  0  0  0  0  0  0  0  0  0
   13.8343   49.2019   16.3203 N   0  0  0  0  0  0  0  0  0  0  0  0
   15.0507   48.6262   16.0053 C   0  0  0  0  0  0  0  0  0  0  0  0
   15.1705   47.5614   15.4172 O   0  0  0  0  0  0  0  0  0  0  0  0
   16.2739   49.4461   16.4100 C   0  0  2  0  0  0  0  0  0  0  0  0
   17.4209   49.1669   15.4605 N   0  3  0  0  0  0  0  0  0  0  0  0
   17.3008   49.8707   14.1468 C   0  0  0  0  0  0  0  0  0  0  0  0
   16.7083   49.1485   17.8443 C   0  0  0  0  0  0  0  0  0  0  0  0
   12.0964   47.7004   17.1036 C   0  0  0  0  0  0  0  0  0  0  0  0
   12.7706   47.5556   18.1146 O   0  0  0  0  0  0  0  0  0  0  0  0
   10.8615   47.0879   16.9293 N   0  0  0  0  0  0  0  0  0  0  0  0
   11.7647   46.3862   22.0859 C   0  0  0  0  0  0  0  0  0  0  0  0
   12.3976   45.0613   22.4458 C   0  0  0  0  0  0  0  0  0  0  0  0
   11.7704   44.5539   23.7304 C   0  0  0  0  0  0  0  0  0  0  0  0
    8.2160   44.9683   22.4626 C   0  0  0  0  0  0  0  0  0  0  0  0
    7.5157   44.1631   23.3451 C   0  0  0  0  0  0  0  0  0  0  0  0
    6.6647   42.5906   24.9768 H   0  0  0  0  0  0  0  0  0  0  0  0
   10.0386   43.3757   25.4355 H   0  0  0  0  0  0  0  0  0  0  0  0
    9.7907   47.1450   21.8376 H   0  0  0  0  0  0  0  0  0  0  0  0
   10.2723   44.8330   20.0738 H   0  0  0  0  0  0  0  0  0  0  0  0
   10.9106   45.3207   17.9534 H   0  0  0  0  0  0  0  0  0  0  0  0
    7.5388   44.1533   17.2958 H   0  0  0  0  0  0  0  0  0  0  0  0
    8.0716   44.5640   18.9259 H   0  0  0  0  0  0  0  0  0  0  0  0
    9.1922   43.7806   17.8280 H   0  0  0  0  0  0  0  0  0  0  0  0
    7.5399   46.9159   18.7712 H   0  0  0  0  0  0  0  0  0  0  0  0
    6.8791   46.7328   17.1523 H   0  0  0  0  0  0  0  0  0  0  0  0
    8.1177   47.9464   17.4675 H   0  0  0  0  0  0  0  0  0  0  0  0
    9.6171   44.9116   15.5927 H   0  0  0  0  0  0  0  0  0  0  0  0
    8.2565   45.9929   15.2595 H   0  0  0  0  0  0  0  0  0  0  0  0
   10.8674   46.7056   14.8607 H   0  0  0  0  0  0  0  0  0  0  0  0
   10.7955   48.6785   13.7695 H   0  0  0  0  0  0  0  0  0  0  0  0
    9.7912   49.9824   14.3801 H   0  0  0  0  0  0  0  0  0  0  0  0
   12.0420   50.4637   15.0431 H   0  0  0  0  0  0  0  0  0  0  0  0
   11.1169   50.0797   16.4917 H   0  0  0  0  0  0  0  0  0  0  0  0
   12.7673   47.9239   15.0861 H   0  0  0  0  0  0  0  0  0  0  0  0
   13.7993   50.0156   16.9278 H   0  0  0  0  0  0  0  0  0  0  0  0
   16.0388   50.5129   16.3231 H   0  0  0  0  0  0  0  0  0  0  0  0
   18.3291   49.3687   15.8932 H   0  0  0  0  0  0  0  0  0  0  0  0
   17.4572   48.1549   15.2700 H   0  0  0  0  0  0  0  0  0  0  0  0
   16.3886   49.5273   13.6605 H   0  0  0  0  0  0  0  0  0  0  0  0
   18.1743   49.6182   13.5392 H   0  0  0  0  0  0  0  0  0  0  0  0
   17.2434   50.9470   14.3319 H   0  0  0  0  0  0  0  0  0  0  0  0
   17.3046   49.9694   18.2478 H   0  0  0  0  0  0  0  0  0  0  0  0
   17.3325   48.2573   17.9096 H   0  0  0  0  0  0  0  0  0  0  0  0
   15.8508   49.0088   18.5084 H   0  0  0  0  0  0  0  0  0  0  0  0
   12.3232   46.8535   21.2676 H   0  0  0  0  0  0  0  0  0  0  0  0
   11.8428   47.0651   22.9431 H   0  0  0  0  0  0  0  0  0  0  0  0
   12.2664   44.3353   21.6354 H   0  0  0  0  0  0  0  0  0  0  0  0
   13.4692   45.1866   22.5741 H   0  0  0  0  0  0  0  0  0  0  0  0
   12.0353   45.2009   24.5658 H   0  0  0  0  0  0  0  0  0  0  0  0
   12.1860   43.5701   23.9488 H   0  0  0  0  0  0  0  0  0  0  0  0
    7.6722   45.4602   21.6613 H   0  0  0  0  0  0  0  0  0  0  0  0
    6.4480   44.0177   23.2181 H   0  0  0  0  0  0  0  0  0  0  0  0
  1 35  1  0  0  0  0
  1  2  1  0  0  0  0
  2  3  1  0  0  0  0
  2 34  2  0  0  0  0
  3 36  1  0  0  0  0
  3  4  2  0  0  0  0
  4 32  1  0  0  0  0
  4  5  1  0  0  0  0
  6  5  1  0  0  0  0
  5 33  2  0  0  0  0
  6 30  1  0  0  0  0
  6 37  1  0  0  0  0
  6  7  1  0  0  0  0
  7 38  1  0  0  0  0
  7  8  1  0  0  0  0
  8  9  2  0  0  0  0
 10  8  1  0  0  0  0
 10 39  1  0  0  0  0
 10 11  1  0  0  0  0
 10 29  1  0  0  0  0
 11 13  1  0  0  0  0
 11 12  1  0  0  0  0
 11 14  1  0  0  0  0
 12 40  1  0  0  0  0
 12 41  1  0  0  0  0
 12 42  1  0  0  0  0
 13 43  1  0  0  0  0
 13 44  1  0  0  0  0
 13 45  1  0  0  0  0
 14 46  1  0  0  0  0
 14 47  1  0  0  0  0
 15 14  1  0  0  0  0
 15 48  1  0  0  0  0
 15 29  1  0  0  0  0
 15 16  1  0  0  0  0
 16 17  1  0  0  0  0
 17 18  1  0  0  0  0
 17 49  1  0  0  0  0
 17 50  1  0  0  0  0
 19 18  1  0  0  0  0
 18 51  1  0  0  0  0
 18 52  1  0  0  0  0
 19 27  1  0  0  0  0
 19 53  1  0  0  0  0
 19 20  1  0  0  0  0
 20 54  1  0  0  0  0
 20 21  1  0  0  0  0
 21 22  2  0  0  0  0
 23 21  1  0  0  0  0
 23 55  1  0  0  0  0
 23 26  1  0  0  0  0
 23 24  1  0  0  0  0
 24 56  1  0  0  0  0
 24 57  1  0  0  0  0
 24 25  1  0  0  0  0
 25 58  1  0  0  0  0
 25 59  1  0  0  0  0
 25 60  1  0  0  0  0
 26 61  1  0  0  0  0
 26 62  1  0  0  0  0
 26 63  1  0  0  0  0
 27 29  1  0  0  0  0
 27 28  2  0  0  0  0
 30 31  1  0  0  0  0
 30 64  1  0  0  0  0
 30 65  1  0  0  0  0
 31 32  1  0  0  0  0
 31 66  1  0  0  0  0
 31 67  1  0  0  0  0
 32 68  1  0  0  0  0
 32 69  1  0  0  0  0
 33 70  1  0  0  0  0
 33 34  1  0  0  0  0
 34 71  1  0  0  0  0
M  ZZC   1 o1
M  ZZC   2 c1
M  ZZC   3 c2
M  ZZC   4 c3
M  ZZC   5 c4
M  ZZC   6 c5
M  ZZC   7 n1
M  ZZC   8 c6
M  ZZC   9 o2
M  ZZC  10 c7
M  ZZC  11 c8
M  ZZC  12 c9
M  ZZC  13 c10
M  ZZC  14 c11
M  ZZC  15 c12
M  ZZC  16 o3
M  ZZC  17 c13
M  ZZC  18 c14
M  ZZC  19 c15
M  ZZC  20 n2
M  ZZC  21 c16
M  ZZC  22 o4
M  ZZC  23 c17
M  ZZC  24 n3
M  ZZC  25 c18
M  ZZC  26 c19
M  ZZC  27 c20
M  ZZC  28 o5
M  ZZC  29 n4
M  ZZC  30 c21
M  ZZC  31 c22
M  ZZC  32 c23
M  ZZC  33 c24
M  ZZC  34 c25
M  ZZC  35 h11
M  ZZC  36 h21
M  ZZC  37 h51
M  ZZC  38 h01
M  ZZC  39 h71
M  ZZC  40 h91
M  ZZC  41 h92
M  ZZC  42 h93
M  ZZC  43 h101
M  ZZC  44 h102
M  ZZC  45 h103
M  ZZC  46 h111
M  ZZC  47 h112
M  ZZC  48 h121
M  ZZC  49 h131
M  ZZC  50 h132
M  ZZC  51 h141
M  ZZC  52 h142
M  ZZC  53 h151
M  ZZC  54 h02
M  ZZC  55 h171
M  ZZC  56 h31
M  ZZC  57 h32
M  ZZC  58 h181
M  ZZC  59 h182
M  ZZC  60 h183
M  ZZC  61 h191
M  ZZC  62 h192
M  ZZC  63 h193
M  ZZC  64 h211
M  ZZC  65 h212
M  ZZC  66 h221
M  ZZC  67 h222
M  ZZC  68 h231
M  ZZC  69 h232
M  ZZC  70 h241
M  ZZC  71 h251
M  ZZM   1 6
M  ZZI   1 62
M  ZZM   2 37
M  ZZI   2 124
M  ZZM   3 37
M  ZZI   3 125
M  ZZM   4 37
M  ZZI   4 124
M  ZZM   5 37
M  ZZI   5 124
M  ZZM   6 1
M  ZZI   6 113
M  ZZM   7 10
M  ZZI   7 211
M  ZZM   8 3
M  ZZI   8 121
M  ZZM   9 7
M  ZZI   9 81
M  ZZM  10 1
M  ZZI  10 113
M  ZZM  11 1
M  ZZI  11 110
M  ZZM  12 1
M  ZZI  12 111
M  ZZM  13 1
M  ZZI  13 111
M  ZZM  14 1
M  ZZI  14 112
M  ZZM  15 1
M  ZZI  15 113
M  ZZM  16 6
M  ZZI  16 65
M  ZZM  17 1
M  ZZI  17 112
M  ZZM  18 1
M  ZZI  18 112
M  ZZM  19 1
M  ZZI  19 113
M  ZZM  20 10
M  ZZI  20 211
M  ZZM  21 3
M  ZZI  21 121
M  ZZM  22 7
M  ZZI  22 81
M  ZZM  23 1
M  ZZI  23 113
M  ZZM  24 34
M  ZZI  24 231
M  ZZM  25 1
M  ZZI  25 111
M  ZZM  26 1
M  ZZI  26 111
M  ZZM  27 3
M  ZZI  27 121
M  ZZM  28 7
M  ZZI  28 81
M  ZZM  29 10
M  ZZI  29 192
M  ZZM  30 1
M  ZZI  30 112
M  ZZM  31 1
M  ZZI  31 112
M  ZZM  32 1
M  ZZI  32 112
M  ZZM  33 37
M  ZZI  33 125
M  ZZM  34 37
M  ZZI  34 125
M  ZZM  35 29
M  ZZI  35 27
M  ZZM  36 5
M  ZZI  36 1
M  ZZM  37 5
M  ZZI  37 1
M  ZZM  38 28
M  ZZI  38 11
M  ZZM  39 5
M  ZZI  39 1
M  ZZM  40 5
M  ZZI  40 1
M  ZZM  41 5
M  ZZI  41 1
M  ZZM  42 5
M  ZZI  42 1
M  ZZM  43 5
M  ZZI  43 1
M  ZZM  44 5
M  ZZI  44 1
M  ZZM  45 5
M  ZZI  45 1
M  ZZM  46 5
M  ZZI  46 1
M  ZZM  47 5
M  ZZI  47 1
M  ZZM  48 5
M  ZZI  48 1
M  ZZM  49 5
M  ZZI  49 1
M  ZZM  50 5
M  ZZI  50 1
M  ZZM  51 5
M  ZZI  51 1
M  ZZM  52 5
M  ZZI  52 1
M  ZZM  53 5
M  ZZI  53 1
M  ZZM  54 28
M  ZZI  54 11
M  ZZM  55 5
M  ZZI  55 1
M  ZZM  56 36
M  ZZI  56 17
M  ZZM  57 36
M  ZZI  57 17
M  ZZM  58 5
M  ZZI  58 1
M  ZZM  59 5
M  ZZI  59 1
M  ZZM  60 5
M  ZZI  60 1
M  ZZM  61 5
M  ZZI  61 1
M  ZZM  62 5
M  ZZI  62 1
M  ZZM  63 5
M  ZZI  63 1
M  ZZM  64 5
M  ZZI  64 1
M  ZZM  65 5
M  ZZI  65 1
M  ZZM  66 5
M  ZZI  66 1
M  ZZM  67 5
M  ZZI  67 1
M  ZZM  68 5
M  ZZI  68 1
M  ZZM  69 5
M  ZZI  69 1
M  ZZM  70 5
M  ZZI  70 1
M  ZZM  71 5
M  ZZI  71 1
M  CHG  1  24   1
M  END
> <IX>
1

> <NAME>
IAPBIR2_4QNQ_70.pdb

> <Score>
-27.331572

> <Natom>
71

> <Nflex>
5

> <Hbond>
-6.832624

> <Hphob>
-5.61234

> <VwInt>
-45.452004

> <Dsolv>
17.327232

> <SolEl>
25.997691

> <Eintl>
10.022228

> <RecConf>
ND

> <projPath>
IAPBIR2_maps/

> <NAME_>
IAPBIR2_4QNQ_70.pdb

$$$$
