IAPBIR2_4QNQ_61.pdb
  MOLSOFT 04032206373D

 70 73  0  0  1  0  0  0  0  0999 V2000
   11.1771   49.3712   16.9037 O   0  0  0  0  0  0  0  0  0  0  0  0
   10.7469   48.0565   16.9337 C   0  0  0  0  0  0  0  0  0  0  0  0
   10.7076   47.3578   18.1294 C   0  0  0  0  0  0  0  0  0  0  0  0
   10.2914   46.0269   18.1305 C   0  0  0  0  0  0  0  0  0  0  0  0
   10.2397   45.1726   19.3604 C   0  0  0  0  0  0  0  0  0  0  0  0
    9.4467   44.2385   19.3710 O   0  0  0  0  0  0  0  0  0  0  0  0
   11.1340   45.4250   20.4823 C   0  0  0  0  0  0  0  0  0  0  0  0
   11.8965   46.5673   20.5805 N   0  0  0  0  0  0  0  0  0  0  0  0
   12.5480   46.6175   21.7235 C   0  0  0  0  0  0  0  0  0  0  0  0
   13.3336   47.8183   22.1919 C   0  0  1  0  0  0  0  0  0  0  0  0
   13.0502   48.9515   21.3153 N   0  0  0  0  0  0  0  0  0  0  0  0
   13.5859   49.2611   20.0645 C   0  0  0  0  0  0  0  0  0  0  0  0
   12.9715   49.9979   19.3020 O   0  0  0  0  0  0  0  0  0  0  0  0
   14.9256   48.6160   19.6462 C   0  0  2  0  0  0  0  0  0  0  0  0
   15.9487   48.8839   20.6631 N   0  0  0  0  0  0  0  0  0  0  0  0
   16.4087   50.1544   20.9687 C   0  0  0  0  0  0  0  0  0  0  0  0
   15.9841   51.1750   20.4488 O   0  0  0  0  0  0  0  0  0  0  0  0
   17.5098   50.1943   22.0316 C   0  0  1  0  0  0  0  0  0  0  0  0
   18.7426   50.9076   21.5093 N   0  3  0  0  0  0  0  0  0  0  0  0
   19.9544   50.8851   22.3787 C   0  0  0  0  0  0  0  0  0  0  0  0
   16.9824   50.9047   23.2736 C   0  0  0  0  0  0  0  0  0  0  0  0
   15.3086   49.0327   18.1940 C   0  0  0  0  0  0  0  0  0  0  0  0
   16.8062   48.9809   17.8532 C   0  0  0  0  0  0  0  0  0  0  0  0
   17.0918   49.1865   16.3597 C   0  0  0  0  0  0  0  0  0  0  0  0
   16.2242   48.3605   15.4201 C   0  0  0  0  0  0  0  0  0  0  0  0
   14.7565   48.4883   15.7662 C   0  0  0  0  0  0  0  0  0  0  0  0
   14.5152   48.1510   17.2246 C   0  0  0  0  0  0  0  0  0  0  0  0
   11.9874   49.7789   21.8553 C   0  0  0  0  0  0  0  0  0  0  0  0
   11.6225   49.1573   23.1867 C   0  0  0  0  0  0  0  0  0  0  0  0
   12.8531   48.3507   23.5402 C   0  0  0  0  0  0  0  0  0  0  0  0
   12.4004   45.1901   22.6764 S   0  0  0  0  0  0  0  0  0  0  0  0
   11.3040   44.5503   21.5368 C   0  0  0  0  0  0  0  0  0  0  0  0
    9.8808   45.4502   16.9307 C   0  0  0  0  0  0  0  0  0  0  0  0
    9.9206   46.1627   15.7449 C   0  0  0  0  0  0  0  0  0  0  0  0
   10.3662   47.4712   15.7424 C   0  0  0  0  0  0  0  0  0  0  0  0
   11.5572   49.5968   17.7765 H   0  0  0  0  0  0  0  0  0  0  0  0
   10.9820   47.8730   19.0406 H   0  0  0  0  0  0  0  0  0  0  0  0
   14.3988   47.5824   22.2000 H   0  0  0  0  0  0  0  0  0  0  0  0
   14.7816   47.5305   19.6790 H   0  0  0  0  0  0  0  0  0  0  0  0
   16.3686   48.0773   21.1134 H   0  0  0  0  0  0  0  0  0  0  0  0
   17.8164   49.1749   22.2841 H   0  0  0  0  0  0  0  0  0  0  0  0
   19.0097   50.4642   20.6210 H   0  0  0  0  0  0  0  0  0  0  0  0
   18.5051   51.8794   21.2614 H   0  0  0  0  0  0  0  0  0  0  0  0
   19.7520   51.4673   23.2805 H   0  0  0  0  0  0  0  0  0  0  0  0
   20.7700   51.3395   21.8097 H   0  0  0  0  0  0  0  0  0  0  0  0
   20.1912   49.8444   22.6157 H   0  0  0  0  0  0  0  0  0  0  0  0
   16.8077   51.9684   23.0847 H   0  0  0  0  0  0  0  0  0  0  0  0
   17.6787   50.8171   24.1116 H   0  0  0  0  0  0  0  0  0  0  0  0
   16.0311   50.4691   23.5929 H   0  0  0  0  0  0  0  0  0  0  0  0
   15.0029   50.0715   18.0257 H   0  0  0  0  0  0  0  0  0  0  0  0
   17.3414   49.7572   18.4059 H   0  0  0  0  0  0  0  0  0  0  0  0
   17.2464   48.0453   18.1941 H   0  0  0  0  0  0  0  0  0  0  0  0
   16.9496   50.2448   16.1191 H   0  0  0  0  0  0  0  0  0  0  0  0
   18.1399   48.9594   16.1486 H   0  0  0  0  0  0  0  0  0  0  0  0
   16.3891   48.6783   14.3861 H   0  0  0  0  0  0  0  0  0  0  0  0
   16.5182   47.3097   15.4601 H   0  0  0  0  0  0  0  0  0  0  0  0
   14.4099   49.5054   15.5571 H   0  0  0  0  0  0  0  0  0  0  0  0
   14.1704   47.8157   15.1350 H   0  0  0  0  0  0  0  0  0  0  0  0
   14.7680   47.1042   17.3950 H   0  0  0  0  0  0  0  0  0  0  0  0
   13.4506   48.2312   17.4284 H   0  0  0  0  0  0  0  0  0  0  0  0
   12.3751   50.7966   21.9757 H   0  0  0  0  0  0  0  0  0  0  0  0
   11.1371   49.8140   21.1655 H   0  0  0  0  0  0  0  0  0  0  0  0
   11.3714   49.9050   23.9453 H   0  0  0  0  0  0  0  0  0  0  0  0
   10.7555   48.4972   23.0718 H   0  0  0  0  0  0  0  0  0  0  0  0
   12.6255   47.5894   24.2857 H   0  0  0  0  0  0  0  0  0  0  0  0
   13.6103   49.0177   23.9690 H   0  0  0  0  0  0  0  0  0  0  0  0
   10.8509   43.5844   21.6972 H   0  0  0  0  0  0  0  0  0  0  0  0
    9.5264   44.4279   16.9112 H   0  0  0  0  0  0  0  0  0  0  0  0
    9.6026   45.6959   14.8175 H   0  0  0  0  0  0  0  0  0  0  0  0
   10.4090   48.0361   14.8168 H   0  0  0  0  0  0  0  0  0  0  0  0
  1 36  1  0  0  0  0
  1  2  1  0  0  0  0
  2  3  2  0  0  0  0
  2 35  1  0  0  0  0
  3 37  1  0  0  0  0
  3  4  1  0  0  0  0
  4 33  2  0  0  0  0
  4  5  1  0  0  0  0
  5  6  2  0  0  0  0
  5  7  1  0  0  0  0
  7 32  2  0  0  0  0
  7  8  1  0  0  0  0
  8  9  2  0  0  0  0
  9 31  1  0  0  0  0
 10  9  1  0  0  0  0
 10 38  1  0  0  0  0
 10 30  1  0  0  0  0
 10 11  1  0  0  0  0
 11 28  1  0  0  0  0
 11 12  1  0  0  0  0
 12 13  2  0  0  0  0
 14 12  1  0  0  0  0
 14 39  1  0  0  0  0
 14 15  1  0  0  0  0
 14 22  1  0  0  0  0
 15 40  1  0  0  0  0
 15 16  1  0  0  0  0
 16 17  2  0  0  0  0
 18 16  1  0  0  0  0
 18 41  1  0  0  0  0
 18 21  1  0  0  0  0
 18 19  1  0  0  0  0
 19 42  1  0  0  0  0
 19 43  1  0  0  0  0
 19 20  1  0  0  0  0
 20 44  1  0  0  0  0
 20 45  1  0  0  0  0
 20 46  1  0  0  0  0
 21 47  1  0  0  0  0
 21 48  1  0  0  0  0
 21 49  1  0  0  0  0
 22 50  1  0  0  0  0
 22 23  1  0  0  0  0
 22 27  1  0  0  0  0
 23 51  1  0  0  0  0
 23 52  1  0  0  0  0
 23 24  1  0  0  0  0
 24 53  1  0  0  0  0
 24 54  1  0  0  0  0
 24 25  1  0  0  0  0
 25 55  1  0  0  0  0
 25 56  1  0  0  0  0
 25 26  1  0  0  0  0
 26 57  1  0  0  0  0
 26 58  1  0  0  0  0
 26 27  1  0  0  0  0
 27 59  1  0  0  0  0
 27 60  1  0  0  0  0
 28 29  1  0  0  0  0
 28 61  1  0  0  0  0
 28 62  1  0  0  0  0
 29 30  1  0  0  0  0
 29 63  1  0  0  0  0
 29 64  1  0  0  0  0
 30 65  1  0  0  0  0
 30 66  1  0  0  0  0
 31 32  1  0  0  0  0
 32 67  1  0  0  0  0
 33 68  1  0  0  0  0
 33 34  1  0  0  0  0
 34 69  1  0  0  0  0
 34 35  2  0  0  0  0
 35 70  1  0  0  0  0
M  ZZC   1 o1
M  ZZC   2 c1
M  ZZC   3 c2
M  ZZC   4 c3
M  ZZC   5 c4
M  ZZC   6 o2
M  ZZC   7 c5
M  ZZC   8 n1
M  ZZC   9 c6
M  ZZC  10 c7
M  ZZC  11 n2
M  ZZC  12 c8
M  ZZC  13 o3
M  ZZC  14 c9
M  ZZC  15 n3
M  ZZC  16 c10
M  ZZC  17 o4
M  ZZC  18 c11
M  ZZC  19 n4
M  ZZC  20 c12
M  ZZC  21 c13
M  ZZC  22 c14
M  ZZC  23 c15
M  ZZC  24 c16
M  ZZC  25 c17
M  ZZC  26 c18
M  ZZC  27 c19
M  ZZC  28 c20
M  ZZC  29 c21
M  ZZC  30 c22
M  ZZC  31 s1
M  ZZC  32 c23
M  ZZC  33 c24
M  ZZC  34 c25
M  ZZC  35 c26
M  ZZC  36 h11
M  ZZC  37 h21
M  ZZC  38 h71
M  ZZC  39 h91
M  ZZC  40 h31
M  ZZC  41 h111
M  ZZC  42 h41
M  ZZC  43 h42
M  ZZC  44 h121
M  ZZC  45 h122
M  ZZC  46 h123
M  ZZC  47 h131
M  ZZC  48 h132
M  ZZC  49 h133
M  ZZC  50 h141
M  ZZC  51 h151
M  ZZC  52 h152
M  ZZC  53 h161
M  ZZC  54 h162
M  ZZC  55 h171
M  ZZC  56 h172
M  ZZC  57 h181
M  ZZC  58 h182
M  ZZC  59 h191
M  ZZC  60 h192
M  ZZC  61 h201
M  ZZC  62 h202
M  ZZC  63 h211
M  ZZC  64 h212
M  ZZC  65 h221
M  ZZC  66 h222
M  ZZC  67 h231
M  ZZC  68 h241
M  ZZC  69 h251
M  ZZC  70 h261
M  ZZM   1 6
M  ZZI   1 62
M  ZZM   2 37
M  ZZI   2 124
M  ZZM   3 37
M  ZZI   3 125
M  ZZM   4 37
M  ZZI   4 124
M  ZZM   5 3
M  ZZI   5 122
M  ZZM   6 7
M  ZZI   6 80
M  ZZM   7 64
M  ZZI   7 105
M  ZZM   8 66
M  ZZI   8 222
M  ZZM   9 63
M  ZZI   9 104
M  ZZM  10 1
M  ZZI  10 113
M  ZZM  11 10
M  ZZI  11 192
M  ZZM  12 3
M  ZZI  12 121
M  ZZM  13 7
M  ZZI  13 81
M  ZZM  14 1
M  ZZI  14 113
M  ZZM  15 10
M  ZZI  15 211
M  ZZM  16 3
M  ZZI  16 121
M  ZZM  17 7
M  ZZI  17 81
M  ZZM  18 1
M  ZZI  18 113
M  ZZM  19 34
M  ZZI  19 231
M  ZZM  20 1
M  ZZI  20 111
M  ZZM  21 1
M  ZZI  21 111
M  ZZM  22 1
M  ZZI  22 113
M  ZZM  23 1
M  ZZI  23 112
M  ZZM  24 1
M  ZZI  24 112
M  ZZM  25 1
M  ZZI  25 112
M  ZZM  26 1
M  ZZI  26 112
M  ZZM  27 1
M  ZZI  27 112
M  ZZM  28 1
M  ZZI  28 112
M  ZZM  29 1
M  ZZI  29 112
M  ZZM  30 1
M  ZZI  30 112
M  ZZM  31 44
M  ZZI  31 248
M  ZZM  32 63
M  ZZI  32 104
M  ZZM  33 37
M  ZZI  33 125
M  ZZM  34 37
M  ZZI  34 125
M  ZZM  35 37
M  ZZI  35 125
M  ZZM  36 29
M  ZZI  36 27
M  ZZM  37 5
M  ZZI  37 1
M  ZZM  38 5
M  ZZI  38 1
M  ZZM  39 5
M  ZZI  39 1
M  ZZM  40 28
M  ZZI  40 11
M  ZZM  41 5
M  ZZI  41 1
M  ZZM  42 36
M  ZZI  42 17
M  ZZM  43 36
M  ZZI  43 17
M  ZZM  44 5
M  ZZI  44 1
M  ZZM  45 5
M  ZZI  45 1
M  ZZM  46 5
M  ZZI  46 1
M  ZZM  47 5
M  ZZI  47 1
M  ZZM  48 5
M  ZZI  48 1
M  ZZM  49 5
M  ZZI  49 1
M  ZZM  50 5
M  ZZI  50 1
M  ZZM  51 5
M  ZZI  51 1
M  ZZM  52 5
M  ZZI  52 1
M  ZZM  53 5
M  ZZI  53 1
M  ZZM  54 5
M  ZZI  54 1
M  ZZM  55 5
M  ZZI  55 1
M  ZZM  56 5
M  ZZI  56 1
M  ZZM  57 5
M  ZZI  57 1
M  ZZM  58 5
M  ZZI  58 1
M  ZZM  59 5
M  ZZI  59 1
M  ZZM  60 5
M  ZZI  60 1
M  ZZM  61 5
M  ZZI  61 1
M  ZZM  62 5
M  ZZI  62 1
M  ZZM  63 5
M  ZZI  63 1
M  ZZM  64 5
M  ZZI  64 1
M  ZZM  65 5
M  ZZI  65 1
M  ZZM  66 5
M  ZZI  66 1
M  ZZM  67 5
M  ZZI  67 1
M  ZZM  68 5
M  ZZI  68 1
M  ZZM  69 5
M  ZZI  69 1
M  ZZM  70 5
M  ZZI  70 1
M  CHG  1  19   1
M  END
> <IX>
1

> <NAME>
IAPBIR2_4QNQ_61.pdb

> <Score>
-28.625531

> <Natom>
70

> <Nflex>
7

> <Hbond>
-3.02913

> <Hphob>
-5.637358

> <VwInt>
-57.990582

> <Dsolv>
12.761974

> <SolEl>
26.848515

> <Eintl>
15.523801

> <RecConf>
ND

> <projPath>
IAPBIR2_maps/

> <NAME_>
IAPBIR2_4QNQ_61.pdb

$$$$
