IAPBIR2_6XJK_2.pdb
  MOLSOFT 04032206393D

 82 85  0  0  1  0  0  0  0  0999 V2000
    9.1753   51.4885   21.9867 C   0  0  0  0  0  0  0  0  0  0  0  0
   10.5973   51.6305   22.4557 C   0  0  0  0  0  0  0  0  0  0  0  0
   11.1446   52.7170   22.5705 O   0  0  0  0  0  0  0  0  0  0  0  0
   11.1918   50.4174   22.7272 N   0  0  0  0  0  0  0  0  0  0  0  0
   12.5768   50.3102   23.1677 C   0  0  2  0  0  0  0  0  0  0  0  0
   13.5575   50.3241   22.0001 C   0  0  0  0  0  0  0  0  0  0  0  0
   13.7589   48.9308   21.6416 N   0  0  0  0  0  0  0  0  0  0  0  0
   14.5579   48.4219   20.6169 C   0  0  0  0  0  0  0  0  0  0  0  0
   14.6757   47.2169   20.4397 O   0  0  0  0  0  0  0  0  0  0  0  0
   15.3841   49.4163   19.7907 C   0  0  1  0  0  0  0  0  0  0  0  0
   16.6159   49.5499   20.5761 N   0  0  0  0  0  0  0  0  0  0  0  0
   16.9653   50.7253   21.2191 C   0  0  0  0  0  0  0  0  0  0  0  0
   16.4004   51.7935   21.0363 O   0  0  0  0  0  0  0  0  0  0  0  0
   18.1304   50.5851   22.2033 C   0  0  1  0  0  0  0  0  0  0  0  0
   19.4300   51.0719   21.5964 N   0  3  0  0  0  0  0  0  0  0  0  0
   20.6715   50.7645   22.3644 C   0  0  0  0  0  0  0  0  0  0  0  0
   17.8206   51.3831   23.4674 C   0  0  0  0  0  0  0  0  0  0  0  0
   15.6542   48.8534   18.3770 C   0  0  0  0  0  0  0  0  0  0  0  0
   14.3452   48.6325   17.5969 C   0  0  0  0  0  0  0  0  0  0  0  0
   14.4691   48.8262   16.0873 C   0  0  0  0  0  0  0  0  0  0  0  0
   15.8125   48.3665   15.5516 C   0  0  0  0  0  0  0  0  0  0  0  0
   16.9691   49.1101   16.2115 C   0  0  0  0  0  0  0  0  0  0  0  0
   16.6247   49.7145   17.5747 C   0  0  0  0  0  0  0  0  0  0  0  0
   13.2122   48.0460   22.6582 C   0  0  2  0  0  0  0  0  0  0  0  0
   12.0020   47.2629   22.1523 C   0  0  0  0  0  0  0  0  0  0  0  0
   10.8578   47.6889   22.2405 O   0  0  0  0  0  0  0  0  0  0  0  0
   12.3408   46.0612   21.5552 N   0  0  0  0  0  0  0  0  0  0  0  0
   11.3549   45.1465   21.0012 C   0  0  1  0  0  0  0  0  0  0  0  0
   10.3643   44.6499   22.0348 C   0  0  0  0  0  0  0  0  0  0  0  0
    9.0107   44.4737   21.7182 C   0  0  0  0  0  0  0  0  0  0  0  0
    8.1386   43.9838   22.6861 C   0  0  0  0  0  0  0  0  0  0  0  0
    8.5825   43.6828   23.9578 C   0  0  0  0  0  0  0  0  0  0  0  0
    9.9081   43.8774   24.2798 C   0  0  0  0  0  0  0  0  0  0  0  0
   10.7973   44.3237   23.3213 C   0  0  0  0  0  0  0  0  0  0  0  0
    8.4551   44.8615   20.3724 C   0  0  0  0  0  0  0  0  0  0  0  0
    9.5207   44.9248   19.2916 C   0  0  0  0  0  0  0  0  0  0  0  0
   10.6911   45.7628   19.7621 C   0  0  0  0  0  0  0  0  0  0  0  0
   12.8592   48.9666   23.8238 C   0  0  0  0  0  0  0  0  0  0  0  0
    8.5789   50.9872   22.7554 H   0  0  0  0  0  0  0  0  0  0  0  0
    9.1461   50.9016   21.0634 H   0  0  0  0  0  0  0  0  0  0  0  0
    8.7481   52.4771   21.7939 H   0  0  0  0  0  0  0  0  0  0  0  0
   10.6680   49.5609   22.5546 H   0  0  0  0  0  0  0  0  0  0  0  0
   12.7704   51.1428   23.8529 H   0  0  0  0  0  0  0  0  0  0  0  0
   13.2184   50.9014   21.1338 H   0  0  0  0  0  0  0  0  0  0  0  0
   14.5182   50.7180   22.3379 H   0  0  0  0  0  0  0  0  0  0  0  0
   14.8776   50.3833   19.7202 H   0  0  0  0  0  0  0  0  0  0  0  0
   17.1562   48.7059   20.7359 H   0  0  0  0  0  0  0  0  0  0  0  0
   18.2696   49.5296   22.4548 H   0  0  0  0  0  0  0  0  0  0  0  0
   19.5267   50.6329   20.6720 H   0  0  0  0  0  0  0  0  0  0  0  0
   19.3702   52.0846   21.4138 H   0  0  0  0  0  0  0  0  0  0  0  0
   20.6485   51.3132   23.3082 H   0  0  0  0  0  0  0  0  0  0  0  0
   21.5186   51.0966   21.7582 H   0  0  0  0  0  0  0  0  0  0  0  0
   20.7173   49.6850   22.5300 H   0  0  0  0  0  0  0  0  0  0  0  0
   17.7780   52.4583   23.2662 H   0  0  0  0  0  0  0  0  0  0  0  0
   18.5700   51.2174   24.2448 H   0  0  0  0  0  0  0  0  0  0  0  0
   16.8521   51.0865   23.8815 H   0  0  0  0  0  0  0  0  0  0  0  0
   16.1383   47.8838   18.4997 H   0  0  0  0  0  0  0  0  0  0  0  0
   13.9881   47.6166   17.7925 H   0  0  0  0  0  0  0  0  0  0  0  0
   13.5545   49.2952   17.9625 H   0  0  0  0  0  0  0  0  0  0  0  0
   13.6625   48.2850   15.5831 H   0  0  0  0  0  0  0  0  0  0  0  0
   14.3291   49.8843   15.8421 H   0  0  0  0  0  0  0  0  0  0  0  0
   15.9167   47.2929   15.7199 H   0  0  0  0  0  0  0  0  0  0  0  0
   15.8578   48.4971   14.4659 H   0  0  0  0  0  0  0  0  0  0  0  0
   17.8148   48.4237   16.3104 H   0  0  0  0  0  0  0  0  0  0  0  0
   17.3204   49.9071   15.5489 H   0  0  0  0  0  0  0  0  0  0  0  0
   16.2034   50.7158   17.4348 H   0  0  0  0  0  0  0  0  0  0  0  0
   17.5481   49.8443   18.1420 H   0  0  0  0  0  0  0  0  0  0  0  0
   13.9859   47.3335   22.9433 H   0  0  0  0  0  0  0  0  0  0  0  0
   13.3261   45.8719   21.3792 H   0  0  0  0  0  0  0  0  0  0  0  0
   11.9189   44.2654   20.6785 H   0  0  0  0  0  0  0  0  0  0  0  0
    7.0877   43.8406   22.4541 H   0  0  0  0  0  0  0  0  0  0  0  0
    7.8886   43.3042   24.7011 H   0  0  0  0  0  0  0  0  0  0  0  0
   10.2528   43.6749   25.2881 H   0  0  0  0  0  0  0  0  0  0  0  0
   11.8438   44.4262   23.5943 H   0  0  0  0  0  0  0  0  0  0  0  0
    7.6801   44.1551   20.0613 H   0  0  0  0  0  0  0  0  0  0  0  0
    7.9751   45.8415   20.4693 H   0  0  0  0  0  0  0  0  0  0  0  0
    9.8658   43.9200   19.0444 H   0  0  0  0  0  0  0  0  0  0  0  0
    9.0984   45.3457   18.3738 H   0  0  0  0  0  0  0  0  0  0  0  0
   10.3335   46.7778   19.9619 H   0  0  0  0  0  0  0  0  0  0  0  0
   11.4220   45.8655   18.9544 H   0  0  0  0  0  0  0  0  0  0  0  0
   13.7345   49.0678   24.4759 H   0  0  0  0  0  0  0  0  0  0  0  0
   12.0310   48.5991   24.4394 H   0  0  0  0  0  0  0  0  0  0  0  0
  1 39  1  0  0  0  0
  1 40  1  0  0  0  0
  1 41  1  0  0  0  0
  1  2  1  0  0  0  0
  2  3  2  0  0  0  0
  2  4  1  0  0  0  0
  4 42  1  0  0  0  0
  5  4  1  0  0  0  0
  5 43  1  0  0  0  0
  5 38  1  0  0  0  0
  5  6  1  0  0  0  0
  6  7  1  0  0  0  0
  6 44  1  0  0  0  0
  6 45  1  0  0  0  0
 24  7  1  0  0  0  0
  7  8  1  0  0  0  0
  8  9  2  0  0  0  0
 10  8  1  0  0  0  0
 10 46  1  0  0  0  0
 10 11  1  0  0  0  0
 10 18  1  0  0  0  0
 11 47  1  0  0  0  0
 11 12  1  0  0  0  0
 12 13  2  0  0  0  0
 14 12  1  0  0  0  0
 14 48  1  0  0  0  0
 14 17  1  0  0  0  0
 14 15  1  0  0  0  0
 15 49  1  0  0  0  0
 15 50  1  0  0  0  0
 15 16  1  0  0  0  0
 16 51  1  0  0  0  0
 16 52  1  0  0  0  0
 16 53  1  0  0  0  0
 17 54  1  0  0  0  0
 17 55  1  0  0  0  0
 17 56  1  0  0  0  0
 18 57  1  0  0  0  0
 18 19  1  0  0  0  0
 18 23  1  0  0  0  0
 19 58  1  0  0  0  0
 19 59  1  0  0  0  0
 19 20  1  0  0  0  0
 20 60  1  0  0  0  0
 20 61  1  0  0  0  0
 20 21  1  0  0  0  0
 21 62  1  0  0  0  0
 21 63  1  0  0  0  0
 21 22  1  0  0  0  0
 22 64  1  0  0  0  0
 22 65  1  0  0  0  0
 22 23  1  0  0  0  0
 23 66  1  0  0  0  0
 23 67  1  0  0  0  0
 24 38  1  0  0  0  0
 24 68  1  0  0  0  0
 24 25  1  0  0  0  0
 25 26  2  0  0  0  0
 25 27  1  0  0  0  0
 27 69  1  0  0  0  0
 28 27  1  0  0  0  0
 28 70  1  0  0  0  0
 28 29  1  0  0  0  0
 28 37  1  0  0  0  0
 29 30  2  0  0  0  0
 29 34  1  0  0  0  0
 30 35  1  0  0  0  0
 30 31  1  0  0  0  0
 31 71  1  0  0  0  0
 31 32  2  0  0  0  0
 32 72  1  0  0  0  0
 32 33  1  0  0  0  0
 33 73  1  0  0  0  0
 33 34  2  0  0  0  0
 34 74  1  0  0  0  0
 35 75  1  0  0  0  0
 35 76  1  0  0  0  0
 35 36  1  0  0  0  0
 36 77  1  0  0  0  0
 36 78  1  0  0  0  0
 36 37  1  0  0  0  0
 37 79  1  0  0  0  0
 37 80  1  0  0  0  0
 38 81  1  0  0  0  0
 38 82  1  0  0  0  0
M  ZZC   1 c1
M  ZZC   2 c2
M  ZZC   3 o1
M  ZZC   4 n1
M  ZZC   5 c3
M  ZZC   6 c4
M  ZZC   7 n2
M  ZZC   8 c5
M  ZZC   9 o2
M  ZZC  10 c6
M  ZZC  11 n3
M  ZZC  12 c7
M  ZZC  13 o3
M  ZZC  14 c8
M  ZZC  15 n4
M  ZZC  16 c9
M  ZZC  17 c10
M  ZZC  18 c11
M  ZZC  19 c12
M  ZZC  20 c13
M  ZZC  21 c14
M  ZZC  22 c15
M  ZZC  23 c16
M  ZZC  24 c17
M  ZZC  25 c18
M  ZZC  26 o4
M  ZZC  27 n5
M  ZZC  28 c19
M  ZZC  29 c20
M  ZZC  30 c21
M  ZZC  31 c22
M  ZZC  32 c23
M  ZZC  33 c24
M  ZZC  34 c25
M  ZZC  35 c26
M  ZZC  36 c27
M  ZZC  37 c28
M  ZZC  38 c29
M  ZZC  39 h11
M  ZZC  40 h12
M  ZZC  41 h13
M  ZZC  42 h01
M  ZZC  43 h31
M  ZZC  44 h41
M  ZZC  45 h42
M  ZZC  46 h61
M  ZZC  47 h02
M  ZZC  48 h81
M  ZZC  49 h03
M  ZZC  50 h04
M  ZZC  51 h91
M  ZZC  52 h92
M  ZZC  53 h93
M  ZZC  54 h101
M  ZZC  55 h102
M  ZZC  56 h103
M  ZZC  57 h111
M  ZZC  58 h121
M  ZZC  59 h122
M  ZZC  60 h131
M  ZZC  61 h132
M  ZZC  62 h141
M  ZZC  63 h142
M  ZZC  64 h151
M  ZZC  65 h152
M  ZZC  66 h161
M  ZZC  67 h162
M  ZZC  68 h171
M  ZZC  69 h51
M  ZZC  70 h191
M  ZZC  71 h221
M  ZZC  72 h231
M  ZZC  73 h241
M  ZZC  74 h251
M  ZZC  75 h261
M  ZZC  76 h262
M  ZZC  77 h271
M  ZZC  78 h272
M  ZZC  79 h281
M  ZZC  80 h282
M  ZZC  81 h291
M  ZZC  82 h292
M  ZZM   1 1
M  ZZI   1 111
M  ZZM   2 3
M  ZZI   2 121
M  ZZM   3 7
M  ZZI   3 81
M  ZZM   4 10
M  ZZI   4 211
M  ZZM   5 1
M  ZZI   5 113
M  ZZM   6 1
M  ZZI   6 112
M  ZZM   7 10
M  ZZI   7 192
M  ZZM   8 3
M  ZZI   8 121
M  ZZM   9 7
M  ZZI   9 81
M  ZZM  10 1
M  ZZI  10 113
M  ZZM  11 10
M  ZZI  11 211
M  ZZM  12 3
M  ZZI  12 121
M  ZZM  13 7
M  ZZI  13 81
M  ZZM  14 1
M  ZZI  14 113
M  ZZM  15 34
M  ZZI  15 231
M  ZZM  16 1
M  ZZI  16 111
M  ZZM  17 1
M  ZZI  17 111
M  ZZM  18 1
M  ZZI  18 113
M  ZZM  19 1
M  ZZI  19 112
M  ZZM  20 1
M  ZZI  20 112
M  ZZM  21 1
M  ZZI  21 112
M  ZZM  22 1
M  ZZI  22 112
M  ZZM  23 1
M  ZZI  23 112
M  ZZM  24 1
M  ZZI  24 113
M  ZZM  25 3
M  ZZI  25 121
M  ZZM  26 7
M  ZZI  26 81
M  ZZM  27 10
M  ZZI  27 211
M  ZZM  28 1
M  ZZI  28 113
M  ZZM  29 37
M  ZZI  29 124
M  ZZM  30 37
M  ZZI  30 124
M  ZZM  31 37
M  ZZI  31 125
M  ZZM  32 37
M  ZZI  32 125
M  ZZM  33 37
M  ZZI  33 125
M  ZZM  34 37
M  ZZI  34 125
M  ZZM  35 1
M  ZZI  35 112
M  ZZM  36 1
M  ZZI  36 112
M  ZZM  37 1
M  ZZI  37 112
M  ZZM  38 1
M  ZZI  38 112
M  ZZM  39 5
M  ZZI  39 1
M  ZZM  40 5
M  ZZI  40 1
M  ZZM  41 5
M  ZZI  41 1
M  ZZM  42 28
M  ZZI  42 11
M  ZZM  43 5
M  ZZI  43 1
M  ZZM  44 5
M  ZZI  44 1
M  ZZM  45 5
M  ZZI  45 1
M  ZZM  46 5
M  ZZI  46 1
M  ZZM  47 28
M  ZZI  47 11
M  ZZM  48 5
M  ZZI  48 1
M  ZZM  49 36
M  ZZI  49 17
M  ZZM  50 36
M  ZZI  50 17
M  ZZM  51 5
M  ZZI  51 1
M  ZZM  52 5
M  ZZI  52 1
M  ZZM  53 5
M  ZZI  53 1
M  ZZM  54 5
M  ZZI  54 1
M  ZZM  55 5
M  ZZI  55 1
M  ZZM  56 5
M  ZZI  56 1
M  ZZM  57 5
M  ZZI  57 1
M  ZZM  58 5
M  ZZI  58 1
M  ZZM  59 5
M  ZZI  59 1
M  ZZM  60 5
M  ZZI  60 1
M  ZZM  61 5
M  ZZI  61 1
M  ZZM  62 5
M  ZZI  62 1
M  ZZM  63 5
M  ZZI  63 1
M  ZZM  64 5
M  ZZI  64 1
M  ZZM  65 5
M  ZZI  65 1
M  ZZM  66 5
M  ZZI  66 1
M  ZZM  67 5
M  ZZI  67 1
M  ZZM  68 5
M  ZZI  68 1
M  ZZM  69 28
M  ZZI  69 11
M  ZZM  70 5
M  ZZI  70 1
M  ZZM  71 5
M  ZZI  71 1
M  ZZM  72 5
M  ZZI  72 1
M  ZZM  73 5
M  ZZI  73 1
M  ZZM  74 5
M  ZZI  74 1
M  ZZM  75 5
M  ZZI  75 1
M  ZZM  76 5
M  ZZI  76 1
M  ZZM  77 5
M  ZZI  77 1
M  ZZM  78 5
M  ZZI  78 1
M  ZZM  79 5
M  ZZI  79 1
M  ZZM  80 5
M  ZZI  80 1
M  ZZM  81 5
M  ZZI  81 1
M  ZZM  82 5
M  ZZI  82 1
M  CHG  1  15   1
M  END
> <IX>
1

> <NAME>
IAPBIR2_6XJK_2.pdb

> <Score>
-24.490141

> <Natom>
82

> <Nflex>
9

> <Hbond>
-4.079995

> <Hphob>
-5.617054

> <VwInt>
-59.56456

> <Dsolv>
16.9063

> <SolEl>
31.963959

> <Eintl>
16.640488

> <RecConf>
ND

> <projPath>
IAPBIR2_maps/

> <NAME_>
IAPBIR2_6XJK_2.pdb

$$$$
