IAPBIR2_3K6P_22.pdb
  MOLSOFT 04032206323D

 48 48  0  0  1  0  0  0  0  0999 V2000
   19.1111   21.3798   18.1167 N   0  0  0  0  0  0  0  0  0  0  0  0
   19.0289   21.2774   16.7517 C   0  0  0  0  0  0  0  0  0  0  0  0
   18.1304   21.8027   16.1114 O   0  0  0  0  0  0  0  0  0  0  0  0
   20.1658   20.4826   16.1090 C   0  0  2  0  0  0  0  0  0  0  0  0
   21.0553   21.3720   15.3532 N   0  0  0  0  0  0  0  0  0  0  0  0
   22.1724   21.9316   15.9456 C   0  0  0  0  0  0  0  0  0  0  0  0
   22.4185   21.8278   17.1400 O   0  0  0  0  0  0  0  0  0  0  0  0
   23.1712   22.5929   14.9971 C   0  0  1  0  0  0  0  0  0  0  0  0
   22.5518   23.4244   14.0095 O   0  0  0  0  0  0  0  0  0  0  0  0
   24.2710   23.3813   15.7592 C   0  0  2  0  0  0  0  0  0  0  0  0
   24.3260   22.9791   17.2110 N   0  3  0  0  0  0  0  0  0  0  0  0
   24.1415   24.9128   15.6759 C   0  0  0  0  0  0  0  0  0  0  0  0
   25.3500   25.6428   16.2099 C   0  0  0  0  0  0  0  0  0  0  0  0
   25.3440   26.1707   17.4962 C   0  0  0  0  0  0  0  0  0  0  0  0
   26.4785   26.7643   18.0238 C   0  0  0  0  0  0  0  0  0  0  0  0
   27.6332   26.8485   17.2698 C   0  0  0  0  0  0  0  0  0  0  0  0
   27.6377   26.3708   15.9736 C   0  0  0  0  0  0  0  0  0  0  0  0
   26.5003   25.7875   15.4414 C   0  0  0  0  0  0  0  0  0  0  0  0
   19.5557   19.3822   15.2380 C   0  0  0  0  0  0  0  0  0  0  0  0
   20.5491   18.5831   14.3825 C   0  0  0  0  0  0  0  0  0  0  0  0
   19.8056   17.5315   13.5628 C   0  0  0  0  0  0  0  0  0  0  0  0
   21.6364   17.9130   15.2182 C   0  0  0  0  0  0  0  0  0  0  0  0
   18.4218   21.9297   18.6175 H   0  0  0  0  0  0  0  0  0  0  0  0
   19.8640   20.9814   18.6661 H   0  0  0  0  0  0  0  0  0  0  0  0
   20.7518   20.0168   16.9082 H   0  0  0  0  0  0  0  0  0  0  0  0
   20.8217   21.5984   14.3906 H   0  0  0  0  0  0  0  0  0  0  0  0
   23.6564   21.7700   14.4605 H   0  0  0  0  0  0  0  0  0  0  0  0
   22.4210   22.8996   13.1987 H   0  0  0  0  0  0  0  0  0  0  0  0
   25.2418   23.0837   15.3483 H   0  0  0  0  0  0  0  0  0  0  0  0
   23.5032   23.2980   17.7385 H   0  0  0  0  0  0  0  0  0  0  0  0
   25.1634   23.3321   17.6937 H   0  0  0  0  0  0  0  0  0  0  0  0
   24.3734   21.9531   17.3109 H   0  0  0  0  0  0  0  0  0  0  0  0
   24.0039   25.2274   14.6411 H   0  0  0  0  0  0  0  0  0  0  0  0
   23.2446   25.2627   16.1909 H   0  0  0  0  0  0  0  0  0  0  0  0
   24.4547   26.0942   18.1153 H   0  0  0  0  0  0  0  0  0  0  0  0
   26.4674   27.1487   19.0385 H   0  0  0  0  0  0  0  0  0  0  0  0
   28.5304   27.2910   17.6909 H   0  0  0  0  0  0  0  0  0  0  0  0
   28.5444   26.4316   15.3813 H   0  0  0  0  0  0  0  0  0  0  0  0
   26.5297   25.4126   14.4246 H   0  0  0  0  0  0  0  0  0  0  0  0
   19.0206   18.6935   15.8950 H   0  0  0  0  0  0  0  0  0  0  0  0
   18.7935   19.8185   14.5849 H   0  0  0  0  0  0  0  0  0  0  0  0
   21.0320   19.2664   13.6812 H   0  0  0  0  0  0  0  0  0  0  0  0
   19.3176   16.7936   14.2065 H   0  0  0  0  0  0  0  0  0  0  0  0
   20.4902   16.9958   12.8987 H   0  0  0  0  0  0  0  0  0  0  0  0
   19.0349   17.9920   12.9373 H   0  0  0  0  0  0  0  0  0  0  0  0
   22.2700   18.6504   15.7182 H   0  0  0  0  0  0  0  0  0  0  0  0
   22.2908   17.3036   14.5876 H   0  0  0  0  0  0  0  0  0  0  0  0
   21.2042   17.2613   15.9842 H   0  0  0  0  0  0  0  0  0  0  0  0
  1  2  1  0  0  0  0
  1 23  1  0  0  0  0
  1 24  1  0  0  0  0
  4  2  1  0  0  0  0
  2  3  2  0  0  0  0
  4  5  1  0  0  0  0
  4 25  1  0  0  0  0
  4 19  1  0  0  0  0
  5  6  1  0  0  0  0
  5 26  1  0  0  0  0
  8  6  1  0  0  0  0
  6  7  2  0  0  0  0
  8  9  1  0  0  0  0
  8 27  1  0  0  0  0
  8 10  1  0  0  0  0
  9 28  1  0  0  0  0
 10 29  1  0  0  0  0
 10 11  1  0  0  0  0
 10 12  1  0  0  0  0
 11 30  1  0  0  0  0
 11 31  1  0  0  0  0
 11 32  1  0  0  0  0
 12 33  1  0  0  0  0
 12 34  1  0  0  0  0
 12 13  1  0  0  0  0
 13 18  2  0  0  0  0
 13 14  1  0  0  0  0
 14 15  2  0  0  0  0
 14 35  1  0  0  0  0
 15 16  1  0  0  0  0
 15 36  1  0  0  0  0
 16 17  2  0  0  0  0
 16 37  1  0  0  0  0
 17 18  1  0  0  0  0
 17 38  1  0  0  0  0
 18 39  1  0  0  0  0
 19 40  1  0  0  0  0
 19 41  1  0  0  0  0
 19 20  1  0  0  0  0
 20 42  1  0  0  0  0
 20 22  1  0  0  0  0
 20 21  1  0  0  0  0
 21 43  1  0  0  0  0
 21 44  1  0  0  0  0
 21 45  1  0  0  0  0
 22 46  1  0  0  0  0
 22 47  1  0  0  0  0
 22 48  1  0  0  0  0
M  ZZC   1 n1
M  ZZC   2 c1
M  ZZC   3 o1
M  ZZC   4 c2
M  ZZC   5 n2
M  ZZC   6 c3
M  ZZC   7 o2
M  ZZC   8 c4
M  ZZC   9 o3
M  ZZC  10 c5
M  ZZC  11 n3
M  ZZC  12 c6
M  ZZC  13 c7
M  ZZC  14 c8
M  ZZC  15 c9
M  ZZC  16 c10
M  ZZC  17 c11
M  ZZC  18 c12
M  ZZC  19 c13
M  ZZC  20 c14
M  ZZC  21 c15
M  ZZC  22 c16
M  ZZC  23 h11
M  ZZC  24 h12
M  ZZC  25 h21
M  ZZC  26 h01
M  ZZC  27 h41
M  ZZC  28 h31
M  ZZC  29 h51
M  ZZC  30 h02
M  ZZC  31 h32
M  ZZC  32 h33
M  ZZC  33 h61
M  ZZC  34 h62
M  ZZC  35 h81
M  ZZC  36 h91
M  ZZC  37 h101
M  ZZC  38 h111
M  ZZC  39 h121
M  ZZC  40 h131
M  ZZC  41 h132
M  ZZC  42 h141
M  ZZC  43 h151
M  ZZC  44 h152
M  ZZC  45 h153
M  ZZC  46 h161
M  ZZC  47 h162
M  ZZC  48 h163
M  ZZM   1 10
M  ZZI   1 212
M  ZZM   2 3
M  ZZI   2 121
M  ZZM   3 7
M  ZZI   3 81
M  ZZM   4 1
M  ZZI   4 113
M  ZZM   5 10
M  ZZI   5 211
M  ZZM   6 3
M  ZZI   6 121
M  ZZM   7 7
M  ZZI   7 81
M  ZZM   8 1
M  ZZI   8 113
M  ZZM   9 6
M  ZZI   9 60
M  ZZM  10 1
M  ZZI  10 113
M  ZZM  11 34
M  ZZI  11 231
M  ZZM  12 1
M  ZZI  12 112
M  ZZM  13 37
M  ZZI  13 124
M  ZZM  14 37
M  ZZI  14 125
M  ZZM  15 37
M  ZZI  15 125
M  ZZM  16 37
M  ZZI  16 125
M  ZZM  17 37
M  ZZI  17 125
M  ZZM  18 37
M  ZZI  18 125
M  ZZM  19 1
M  ZZI  19 112
M  ZZM  20 1
M  ZZI  20 113
M  ZZM  21 1
M  ZZI  21 111
M  ZZM  22 1
M  ZZI  22 111
M  ZZM  23 28
M  ZZI  23 11
M  ZZM  24 28
M  ZZI  24 11
M  ZZM  25 5
M  ZZI  25 1
M  ZZM  26 28
M  ZZI  26 11
M  ZZM  27 5
M  ZZI  27 1
M  ZZM  28 21
M  ZZI  28 20
M  ZZM  29 5
M  ZZI  29 1
M  ZZM  30 36
M  ZZI  30 17
M  ZZM  31 36
M  ZZI  31 17
M  ZZM  32 36
M  ZZI  32 17
M  ZZM  33 5
M  ZZI  33 1
M  ZZM  34 5
M  ZZI  34 1
M  ZZM  35 5
M  ZZI  35 1
M  ZZM  36 5
M  ZZI  36 1
M  ZZM  37 5
M  ZZI  37 1
M  ZZM  38 5
M  ZZI  38 1
M  ZZM  39 5
M  ZZI  39 1
M  ZZM  40 5
M  ZZI  40 1
M  ZZM  41 5
M  ZZI  41 1
M  ZZM  42 5
M  ZZI  42 1
M  ZZM  43 5
M  ZZI  43 1
M  ZZM  44 5
M  ZZI  44 1
M  ZZM  45 5
M  ZZI  45 1
M  ZZM  46 5
M  ZZI  46 1
M  ZZM  47 5
M  ZZI  47 1
M  ZZM  48 5
M  ZZI  48 1
M  CHG  1  11   1
M  END
> <IX>
1

> <NAME>
IAPBIR2_3K6P_22.pdb

> <Score>
-34.664265

> <Natom>
48

> <Nflex>
9

> <Hbond>
-11.065622

> <Hphob>
-3.146106

> <VwInt>
-44.44188

> <Dsolv>
15.267231

> <SolEl>
20.853913

> <Eintl>
15.445873

> <RecConf>
ND

> <projPath>
IAPBIR2_maps/

> <NAME_>
IAPBIR2_3K6P_22.pdb

$$$$
