IAPBIR2_5L2I_11.pdb
  MOLSOFT 04032206353D

 68 69  0  0  1  0  0  0  0  0999 V2000
   27.2022   25.2495   12.1667 F   0  0  0  0  0  0  0  0  0  0  0  0
   26.7628   24.5029   11.1430 C   0  0  0  0  0  0  0  0  0  0  0  0
   25.6282   23.6922   11.2551 C   0  0  0  0  0  0  0  0  0  0  0  0
   24.8315   23.5394   12.4270 N   0  0  0  0  0  0  0  0  0  0  0  0
   25.1477   23.9670   13.7132 C   0  0  0  0  0  0  0  0  0  0  0  0
   26.2534   24.3201   14.1028 O   0  0  0  0  0  0  0  0  0  0  0  0
   23.9472   23.9252   14.6621 C   0  0  1  0  0  0  0  0  0  0  0  0
   24.1142   22.8702   15.6412 N   0  0  0  0  0  0  0  0  0  0  0  0
   23.7504   21.5588   15.3289 C   0  0  0  0  0  0  0  0  0  0  0  0
   23.4627   21.2377   14.1831 O   0  0  0  0  0  0  0  0  0  0  0  0
   23.6415   20.5589   16.4920 C   0  0  1  0  0  0  0  0  0  0  0  0
   22.2153   20.2197   16.6018 N   0  0  0  0  0  0  0  0  0  0  0  0
   21.3428   21.0201   17.3201 C   0  0  0  0  0  0  0  0  0  0  0  0
   21.6793   22.0547   17.8744 O   0  0  0  0  0  0  0  0  0  0  0  0
   19.8962   20.5255   17.3811 C   0  0  1  0  0  0  0  0  0  0  0  0
   19.1277   21.1291   18.5467 N   0  3  0  0  0  0  0  0  0  0  0  0
   19.6643   20.8164   19.9050 C   0  0  0  0  0  0  0  0  0  0  0  0
   19.1864   20.9120   16.0906 C   0  0  0  0  0  0  0  0  0  0  0  0
   24.5638   19.3131   16.3444 C   0  0  0  0  0  0  0  0  0  0  0  0
   24.2557   18.4525   15.1050 C   0  0  0  0  0  0  0  0  0  0  0  0
   26.0294   19.7688   16.2645 C   0  0  0  0  0  0  0  0  0  0  0  0
   24.4084   18.4253   17.5903 C   0  0  0  0  0  0  0  0  0  0  0  0
   24.5884   23.3996   16.9150 C   0  0  0  0  0  0  0  0  0  0  0  0
   24.6259   24.9193   16.7678 C   0  0  1  0  0  0  0  0  0  0  0  0
   25.9626   25.4804   16.6581 N   0  0  0  0  0  0  0  0  0  0  0  0
   26.5458   26.1863   17.6918 C   0  0  0  0  0  0  0  0  0  0  0  0
   26.1160   26.2438   18.8356 O   0  0  0  0  0  0  0  0  0  0  0  0
   27.7921   26.9109   17.2655 C   0  0  0  0  0  0  0  0  0  0  0  0
   23.8342   25.1880   15.5025 C   0  0  0  0  0  0  0  0  0  0  0  0
   25.2239   23.0179   10.1079 C   0  0  0  0  0  0  0  0  0  0  0  0
   24.1383   22.2330   10.1452 F   0  0  0  0  0  0  0  0  0  0  0  0
   25.9040   23.1219    8.9095 C   0  0  0  0  0  0  0  0  0  0  0  0
   27.0242   23.9244    8.8254 C   0  0  0  0  0  0  0  0  0  0  0  0
   27.4523   24.6091    9.9472 C   0  0  0  0  0  0  0  0  0  0  0  0
   23.9645   23.0158   12.3039 H   0  0  0  0  0  0  0  0  0  0  0  0
   23.0283   23.7640   14.0856 H   0  0  0  0  0  0  0  0  0  0  0  0
   23.9122   21.0581   17.4249 H   0  0  0  0  0  0  0  0  0  0  0  0
   21.8565   19.4403   16.0590 H   0  0  0  0  0  0  0  0  0  0  0  0
   19.8768   19.4389   17.5188 H   0  0  0  0  0  0  0  0  0  0  0  0
   19.1077   22.1540   18.4631 H   0  0  0  0  0  0  0  0  0  0  0  0
   18.1420   20.8446   18.5135 H   0  0  0  0  0  0  0  0  0  0  0  0
   19.4278   19.7717   20.1122 H   0  0  0  0  0  0  0  0  0  0  0  0
   19.1737   21.4456   20.6500 H   0  0  0  0  0  0  0  0  0  0  0  0
   20.7448   20.9875   19.8918 H   0  0  0  0  0  0  0  0  0  0  0  0
   19.1723   21.9927   15.9511 H   0  0  0  0  0  0  0  0  0  0  0  0
   18.1500   20.5622   16.0837 H   0  0  0  0  0  0  0  0  0  0  0  0
   19.6875   20.4735   15.2242 H   0  0  0  0  0  0  0  0  0  0  0  0
   24.8743   17.5494   15.0911 H   0  0  0  0  0  0  0  0  0  0  0  0
   24.4648   18.9822   14.1723 H   0  0  0  0  0  0  0  0  0  0  0  0
   23.2138   18.1218   15.0759 H   0  0  0  0  0  0  0  0  0  0  0  0
   26.2123   20.3718   15.3691 H   0  0  0  0  0  0  0  0  0  0  0  0
   26.7127   18.9142   16.2261 H   0  0  0  0  0  0  0  0  0  0  0  0
   26.3135   20.3804   17.1267 H   0  0  0  0  0  0  0  0  0  0  0  0
   25.0944   17.5722   17.5630 H   0  0  0  0  0  0  0  0  0  0  0  0
   23.3953   18.0202   17.6775 H   0  0  0  0  0  0  0  0  0  0  0  0
   24.6212   18.9824   18.5087 H   0  0  0  0  0  0  0  0  0  0  0  0
   23.8925   23.1162   17.7060 H   0  0  0  0  0  0  0  0  0  0  0  0
   25.5646   22.9625   17.1489 H   0  0  0  0  0  0  0  0  0  0  0  0
   24.1518   25.4015   17.6270 H   0  0  0  0  0  0  0  0  0  0  0  0
   26.4598   25.3621   15.7761 H   0  0  0  0  0  0  0  0  0  0  0  0
   28.5970   26.1915   17.0887 H   0  0  0  0  0  0  0  0  0  0  0  0
   28.0953   27.6122   18.0487 H   0  0  0  0  0  0  0  0  0  0  0  0
   27.5999   27.4784   16.3483 H   0  0  0  0  0  0  0  0  0  0  0  0
   24.1716   26.0827   14.9855 H   0  0  0  0  0  0  0  0  0  0  0  0
   22.7910   25.3448   15.7711 H   0  0  0  0  0  0  0  0  0  0  0  0
   25.5523   22.5773    8.0397 H   0  0  0  0  0  0  0  0  0  0  0  0
   27.5586   24.0231    7.8856 H   0  0  0  0  0  0  0  0  0  0  0  0
   28.3242   25.2509    9.8892 H   0  0  0  0  0  0  0  0  0  0  0  0
  2  1  1  0  0  0  0
  2  3  2  0  0  0  0
  2 34  1  0  0  0  0
  3 30  1  0  0  0  0
  3  4  1  0  0  0  0
  4 35  1  0  0  0  0
  4  5  1  0  0  0  0
  5  6  2  0  0  0  0
  7  5  1  0  0  0  0
  7 36  1  0  0  0  0
  7 29  1  0  0  0  0
  7  8  1  0  0  0  0
  8 23  1  0  0  0  0
  8  9  1  0  0  0  0
  9 10  2  0  0  0  0
 11  9  1  0  0  0  0
 11 37  1  0  0  0  0
 11 19  1  0  0  0  0
 11 12  1  0  0  0  0
 12 38  1  0  0  0  0
 12 13  1  0  0  0  0
 13 14  2  0  0  0  0
 15 13  1  0  0  0  0
 15 39  1  0  0  0  0
 15 18  1  0  0  0  0
 15 16  1  0  0  0  0
 16 40  1  0  0  0  0
 16 41  1  0  0  0  0
 16 17  1  0  0  0  0
 17 42  1  0  0  0  0
 17 43  1  0  0  0  0
 17 44  1  0  0  0  0
 18 45  1  0  0  0  0
 18 46  1  0  0  0  0
 18 47  1  0  0  0  0
 19 20  1  0  0  0  0
 19 21  1  0  0  0  0
 19 22  1  0  0  0  0
 20 48  1  0  0  0  0
 20 49  1  0  0  0  0
 20 50  1  0  0  0  0
 21 51  1  0  0  0  0
 21 52  1  0  0  0  0
 21 53  1  0  0  0  0
 22 54  1  0  0  0  0
 22 55  1  0  0  0  0
 22 56  1  0  0  0  0
 24 23  1  0  0  0  0
 23 57  1  0  0  0  0
 23 58  1  0  0  0  0
 24 29  1  0  0  0  0
 24 59  1  0  0  0  0
 24 25  1  0  0  0  0
 25 60  1  0  0  0  0
 25 26  1  0  0  0  0
 26 27  2  0  0  0  0
 26 28  1  0  0  0  0
 28 61  1  0  0  0  0
 28 62  1  0  0  0  0
 28 63  1  0  0  0  0
 29 64  1  0  0  0  0
 29 65  1  0  0  0  0
 30 31  1  0  0  0  0
 30 32  2  0  0  0  0
 32 66  1  0  0  0  0
 32 33  1  0  0  0  0
 33 67  1  0  0  0  0
 33 34  2  0  0  0  0
 34 68  1  0  0  0  0
M  ZZC   1 f1
M  ZZC   2 c1
M  ZZC   3 c2
M  ZZC   4 n1
M  ZZC   5 c3
M  ZZC   6 o1
M  ZZC   7 c4
M  ZZC   8 n2
M  ZZC   9 c5
M  ZZC  10 o2
M  ZZC  11 c6
M  ZZC  12 n3
M  ZZC  13 c7
M  ZZC  14 o3
M  ZZC  15 c8
M  ZZC  16 n4
M  ZZC  17 c9
M  ZZC  18 c10
M  ZZC  19 c11
M  ZZC  20 c12
M  ZZC  21 c13
M  ZZC  22 c14
M  ZZC  23 c15
M  ZZC  24 c16
M  ZZC  25 n5
M  ZZC  26 c17
M  ZZC  27 o4
M  ZZC  28 c18
M  ZZC  29 c19
M  ZZC  30 c20
M  ZZC  31 f2
M  ZZC  32 c21
M  ZZC  33 c22
M  ZZC  34 c23
M  ZZC  35 h11
M  ZZC  36 h41
M  ZZC  37 h61
M  ZZC  38 h31
M  ZZC  39 h81
M  ZZC  40 h01
M  ZZC  41 h42
M  ZZC  42 h91
M  ZZC  43 h92
M  ZZC  44 h93
M  ZZC  45 h101
M  ZZC  46 h102
M  ZZC  47 h103
M  ZZC  48 h121
M  ZZC  49 h122
M  ZZC  50 h123
M  ZZC  51 h131
M  ZZC  52 h132
M  ZZC  53 h133
M  ZZC  54 h141
M  ZZC  55 h142
M  ZZC  56 h143
M  ZZC  57 h151
M  ZZC  58 h152
M  ZZC  59 h161
M  ZZC  60 h51
M  ZZC  61 h181
M  ZZC  62 h182
M  ZZC  63 h183
M  ZZC  64 h191
M  ZZC  65 h192
M  ZZC  66 h211
M  ZZC  67 h221
M  ZZC  68 h231
M  ZZM   1 11
M  ZZI   1 90
M  ZZM   2 37
M  ZZI   2 124
M  ZZM   3 37
M  ZZI   3 124
M  ZZM   4 10
M  ZZI   4 191
M  ZZM   5 3
M  ZZI   5 121
M  ZZM   6 7
M  ZZI   6 81
M  ZZM   7 1
M  ZZI   7 113
M  ZZM   8 10
M  ZZI   8 192
M  ZZM   9 3
M  ZZI   9 121
M  ZZM  10 7
M  ZZI  10 81
M  ZZM  11 1
M  ZZI  11 113
M  ZZM  12 10
M  ZZI  12 211
M  ZZM  13 3
M  ZZI  13 121
M  ZZM  14 7
M  ZZI  14 81
M  ZZM  15 1
M  ZZI  15 113
M  ZZM  16 34
M  ZZI  16 231
M  ZZM  17 1
M  ZZI  17 111
M  ZZM  18 1
M  ZZI  18 111
M  ZZM  19 1
M  ZZI  19 110
M  ZZM  20 1
M  ZZI  20 111
M  ZZM  21 1
M  ZZI  21 111
M  ZZM  22 1
M  ZZI  22 111
M  ZZM  23 1
M  ZZI  23 112
M  ZZM  24 1
M  ZZI  24 113
M  ZZM  25 10
M  ZZI  25 211
M  ZZM  26 3
M  ZZI  26 121
M  ZZM  27 7
M  ZZI  27 81
M  ZZM  28 1
M  ZZI  28 111
M  ZZM  29 1
M  ZZI  29 112
M  ZZM  30 37
M  ZZI  30 124
M  ZZM  31 11
M  ZZI  31 90
M  ZZM  32 37
M  ZZI  32 125
M  ZZM  33 37
M  ZZI  33 125
M  ZZM  34 37
M  ZZI  34 125
M  ZZM  35 28
M  ZZI  35 11
M  ZZM  36 5
M  ZZI  36 1
M  ZZM  37 5
M  ZZI  37 1
M  ZZM  38 28
M  ZZI  38 11
M  ZZM  39 5
M  ZZI  39 1
M  ZZM  40 36
M  ZZI  40 17
M  ZZM  41 36
M  ZZI  41 17
M  ZZM  42 5
M  ZZI  42 1
M  ZZM  43 5
M  ZZI  43 1
M  ZZM  44 5
M  ZZI  44 1
M  ZZM  45 5
M  ZZI  45 1
M  ZZM  46 5
M  ZZI  46 1
M  ZZM  47 5
M  ZZI  47 1
M  ZZM  48 5
M  ZZI  48 1
M  ZZM  49 5
M  ZZI  49 1
M  ZZM  50 5
M  ZZI  50 1
M  ZZM  51 5
M  ZZI  51 1
M  ZZM  52 5
M  ZZI  52 1
M  ZZM  53 5
M  ZZI  53 1
M  ZZM  54 5
M  ZZI  54 1
M  ZZM  55 5
M  ZZI  55 1
M  ZZM  56 5
M  ZZI  56 1
M  ZZM  57 5
M  ZZI  57 1
M  ZZM  58 5
M  ZZI  58 1
M  ZZM  59 5
M  ZZI  59 1
M  ZZM  60 28
M  ZZI  60 11
M  ZZM  61 5
M  ZZI  61 1
M  ZZM  62 5
M  ZZI  62 1
M  ZZM  63 5
M  ZZI  63 1
M  ZZM  64 5
M  ZZI  64 1
M  ZZM  65 5
M  ZZI  65 1
M  ZZM  66 5
M  ZZI  66 1
M  ZZM  67 5
M  ZZI  67 1
M  ZZM  68 5
M  ZZI  68 1
M  CHG  1  16   1
M  END
> <IX>
1

> <NAME>
IAPBIR2_5L2I_11.pdb

> <Score>
-20.40123

> <Natom>
68

> <Nflex>
8

> <Hbond>
-5.024748

> <Hphob>
-5.33401

> <VwInt>
-46.862705

> <Dsolv>
16.249413

> <SolEl>
33.557973

> <Eintl>
6.020918

> <RecConf>
ND

> <projPath>
IAPBIR2_maps/

> <NAME_>
IAPBIR2_5L2I_11.pdb

$$$$
