IAPBIR2_3ERT_1.pdb
  MOLSOFT 04032206323D

 48 48  0  0  1  0  0  0  0  0999 V2000
   21.9938   22.5272   14.5924 O   0  0  0  0  0  0  0  0  0  0  0  0
   22.9352   22.5453   15.3688 C   0  0  0  0  0  0  0  0  0  0  0  0
   22.8798   22.0330   16.6514 N   0  0  0  0  0  0  0  0  0  0  0  0
   21.6281   21.5607   17.2456 C   0  0  2  0  0  0  0  0  0  0  0  0
   21.7594   21.6535   18.7676 C   0  0  0  0  0  0  0  0  0  0  0  0
   22.8297   21.5623   19.3502 O   0  0  0  0  0  0  0  0  0  0  0  0
   20.5761   21.8184   19.4467 N   0  0  0  0  0  0  0  0  0  0  0  0
   21.2768   20.1236   16.8246 C   0  0  0  0  0  0  0  0  0  0  0  0
   20.3002   20.0249   15.6389 C   0  0  0  0  0  0  0  0  0  0  0  0
   18.9459   20.6448   15.9724 C   0  0  0  0  0  0  0  0  0  0  0  0
   20.1161   18.5656   15.2335 C   0  0  0  0  0  0  0  0  0  0  0  0
   24.2716   23.1571   14.9721 C   0  0  1  0  0  0  0  0  0  0  0  0
   24.2110   23.6263   13.6112 O   0  0  0  0  0  0  0  0  0  0  0  0
   24.6388   24.3393   15.9005 C   0  0  2  0  0  0  0  0  0  0  0  0
   23.6484   25.4437   15.6766 N   0  3  0  0  0  0  0  0  0  0  0  0
   26.0598   24.8712   15.6243 C   0  0  0  0  0  0  0  0  0  0  0  0
   26.4942   26.1075   16.3877 C   0  0  0  0  0  0  0  0  0  0  0  0
   26.1095   26.3744   17.7030 C   0  0  0  0  0  0  0  0  0  0  0  0
   26.5213   27.5385   18.3335 C   0  0  0  0  0  0  0  0  0  0  0  0
   27.3213   28.4514   17.6820 C   0  0  0  0  0  0  0  0  0  0  0  0
   27.7305   28.1877   16.3967 C   0  0  0  0  0  0  0  0  0  0  0  0
   27.3497   27.0163   15.7684 C   0  0  0  0  0  0  0  0  0  0  0  0
   23.7164   21.9730   17.2264 H   0  0  0  0  0  0  0  0  0  0  0  0
   20.8498   22.2579   16.9364 H   0  0  0  0  0  0  0  0  0  0  0  0
   20.5895   21.8761   20.4586 H   0  0  0  0  0  0  0  0  0  0  0  0
   19.6711   21.9465   19.0038 H   0  0  0  0  0  0  0  0  0  0  0  0
   22.1978   19.5825   16.5806 H   0  0  0  0  0  0  0  0  0  0  0  0
   20.8376   19.5871   17.6734 H   0  0  0  0  0  0  0  0  0  0  0  0
   20.7104   20.5435   14.7695 H   0  0  0  0  0  0  0  0  0  0  0  0
   18.1973   20.3584   15.2298 H   0  0  0  0  0  0  0  0  0  0  0  0
   18.9905   21.7366   15.9837 H   0  0  0  0  0  0  0  0  0  0  0  0
   18.5926   20.3247   16.9556 H   0  0  0  0  0  0  0  0  0  0  0  0
   21.0683   18.1247   14.9239 H   0  0  0  0  0  0  0  0  0  0  0  0
   19.4247   18.4748   14.3901 H   0  0  0  0  0  0  0  0  0  0  0  0
   19.7206   17.9675   16.0600 H   0  0  0  0  0  0  0  0  0  0  0  0
   25.0319   22.3709   15.0252 H   0  0  0  0  0  0  0  0  0  0  0  0
   23.6498   23.0108   13.0959 H   0  0  0  0  0  0  0  0  0  0  0  0
   24.5370   24.0647   16.9543 H   0  0  0  0  0  0  0  0  0  0  0  0
   23.8887   26.2887   16.2104 H   0  0  0  0  0  0  0  0  0  0  0  0
   22.6915   25.1766   15.9345 H   0  0  0  0  0  0  0  0  0  0  0  0
   23.6136   25.7293   14.6930 H   0  0  0  0  0  0  0  0  0  0  0  0
   26.7836   24.0780   15.8387 H   0  0  0  0  0  0  0  0  0  0  0  0
   26.1523   25.0830   14.5534 H   0  0  0  0  0  0  0  0  0  0  0  0
   25.4751   25.6901   18.2569 H   0  0  0  0  0  0  0  0  0  0  0  0
   26.2037   27.7575   19.3440 H   0  0  0  0  0  0  0  0  0  0  0  0
   27.6335   29.3633   18.1788 H   0  0  0  0  0  0  0  0  0  0  0  0
   28.3575   28.9050   15.8869 H   0  0  0  0  0  0  0  0  0  0  0  0
   27.7233   26.8217   14.7680 H   0  0  0  0  0  0  0  0  0  0  0  0
  1  2  2  0  0  0  0
  2  3  1  0  0  0  0
 12  2  1  0  0  0  0
  4  3  1  0  0  0  0
  3 23  1  0  0  0  0
  4  8  1  0  0  0  0
  4 24  1  0  0  0  0
  4  5  1  0  0  0  0
  5  6  2  0  0  0  0
  5  7  1  0  0  0  0
  7 25  1  0  0  0  0
  7 26  1  0  0  0  0
  8 27  1  0  0  0  0
  8 28  1  0  0  0  0
  8  9  1  0  0  0  0
  9 29  1  0  0  0  0
  9 11  1  0  0  0  0
  9 10  1  0  0  0  0
 10 30  1  0  0  0  0
 10 31  1  0  0  0  0
 10 32  1  0  0  0  0
 11 33  1  0  0  0  0
 11 34  1  0  0  0  0
 11 35  1  0  0  0  0
 12 36  1  0  0  0  0
 12 13  1  0  0  0  0
 12 14  1  0  0  0  0
 13 37  1  0  0  0  0
 14 38  1  0  0  0  0
 14 15  1  0  0  0  0
 14 16  1  0  0  0  0
 15 39  1  0  0  0  0
 15 40  1  0  0  0  0
 15 41  1  0  0  0  0
 16 42  1  0  0  0  0
 16 43  1  0  0  0  0
 16 17  1  0  0  0  0
 17 18  1  0  0  0  0
 17 22  2  0  0  0  0
 18 44  1  0  0  0  0
 18 19  2  0  0  0  0
 19 45  1  0  0  0  0
 19 20  1  0  0  0  0
 20 46  1  0  0  0  0
 20 21  2  0  0  0  0
 21 47  1  0  0  0  0
 21 22  1  0  0  0  0
 22 48  1  0  0  0  0
M  ZZC   1 o1
M  ZZC   2 c1
M  ZZC   3 n1
M  ZZC   4 c2
M  ZZC   5 c3
M  ZZC   6 o2
M  ZZC   7 n2
M  ZZC   8 c4
M  ZZC   9 c5
M  ZZC  10 c6
M  ZZC  11 c7
M  ZZC  12 c8
M  ZZC  13 o3
M  ZZC  14 c9
M  ZZC  15 n3
M  ZZC  16 c10
M  ZZC  17 c11
M  ZZC  18 c12
M  ZZC  19 c13
M  ZZC  20 c14
M  ZZC  21 c15
M  ZZC  22 c16
M  ZZC  23 h11
M  ZZC  24 h21
M  ZZC  25 h01
M  ZZC  26 h22
M  ZZC  27 h41
M  ZZC  28 h42
M  ZZC  29 h51
M  ZZC  30 h61
M  ZZC  31 h62
M  ZZC  32 h63
M  ZZC  33 h71
M  ZZC  34 h72
M  ZZC  35 h73
M  ZZC  36 h81
M  ZZC  37 h31
M  ZZC  38 h91
M  ZZC  39 h02
M  ZZC  40 h32
M  ZZC  41 h33
M  ZZC  42 h101
M  ZZC  43 h102
M  ZZC  44 h121
M  ZZC  45 h131
M  ZZC  46 h141
M  ZZC  47 h151
M  ZZC  48 h161
M  ZZM   1 7
M  ZZI   1 81
M  ZZM   2 3
M  ZZI   2 121
M  ZZM   3 10
M  ZZI   3 211
M  ZZM   4 1
M  ZZI   4 113
M  ZZM   5 3
M  ZZI   5 121
M  ZZM   6 7
M  ZZI   6 81
M  ZZM   7 10
M  ZZI   7 212
M  ZZM   8 1
M  ZZI   8 112
M  ZZM   9 1
M  ZZI   9 113
M  ZZM  10 1
M  ZZI  10 111
M  ZZM  11 1
M  ZZI  11 111
M  ZZM  12 1
M  ZZI  12 113
M  ZZM  13 6
M  ZZI  13 60
M  ZZM  14 1
M  ZZI  14 113
M  ZZM  15 34
M  ZZI  15 231
M  ZZM  16 1
M  ZZI  16 112
M  ZZM  17 37
M  ZZI  17 124
M  ZZM  18 37
M  ZZI  18 125
M  ZZM  19 37
M  ZZI  19 125
M  ZZM  20 37
M  ZZI  20 125
M  ZZM  21 37
M  ZZI  21 125
M  ZZM  22 37
M  ZZI  22 125
M  ZZM  23 28
M  ZZI  23 11
M  ZZM  24 5
M  ZZI  24 1
M  ZZM  25 28
M  ZZI  25 11
M  ZZM  26 28
M  ZZI  26 11
M  ZZM  27 5
M  ZZI  27 1
M  ZZM  28 5
M  ZZI  28 1
M  ZZM  29 5
M  ZZI  29 1
M  ZZM  30 5
M  ZZI  30 1
M  ZZM  31 5
M  ZZI  31 1
M  ZZM  32 5
M  ZZI  32 1
M  ZZM  33 5
M  ZZI  33 1
M  ZZM  34 5
M  ZZI  34 1
M  ZZM  35 5
M  ZZI  35 1
M  ZZM  36 5
M  ZZI  36 1
M  ZZM  37 21
M  ZZI  37 20
M  ZZM  38 5
M  ZZI  38 1
M  ZZM  39 36
M  ZZI  39 17
M  ZZM  40 36
M  ZZI  40 17
M  ZZM  41 36
M  ZZI  41 17
M  ZZM  42 5
M  ZZI  42 1
M  ZZM  43 5
M  ZZI  43 1
M  ZZM  44 5
M  ZZI  44 1
M  ZZM  45 5
M  ZZI  45 1
M  ZZM  46 5
M  ZZI  46 1
M  ZZM  47 5
M  ZZI  47 1
M  ZZM  48 5
M  ZZI  48 1
M  CHG  1  15   1
M  END
> <IX>
1

> <NAME>
IAPBIR2_3ERT_1.pdb

> <Score>
-11.776777

> <Natom>
48

> <Nflex>
9

> <Hbond>
-3.05766

> <Hphob>
-4.074428

> <VwInt>
-41.28475

> <Dsolv>
15.219421

> <SolEl>
29.311734

> <Eintl>
6.355684

> <RecConf>
ND

> <projPath>
IAPBIR2_maps/

> <NAME_>
IAPBIR2_3ERT_1.pdb

$$$$
