Mdm2_2EUF_15.pdb
  MOLSOFT 04032206403D

 77 81  0  0  1  0  0  0  0  0999 V2000
   23.9732   13.1455   38.2135 Cl  0  0  0  0  0  0  0  0  0  0  0  0
   23.0167   14.5825   38.2714 C   0  0  0  0  0  0  0  0  0  0  0  0
   22.9945   15.3519   39.4196 C   0  0  0  0  0  0  0  0  0  0  0  0
   22.2267   16.5031   39.4662 C   0  0  0  0  0  0  0  0  0  0  0  0
   21.4669   16.9136   38.3663 C   0  0  0  0  0  0  0  0  0  0  0  0
   20.5871   18.1655   38.3838 C   0  0  2  0  0  0  0  0  0  0  0  0
   21.2925   19.3540   38.8332 N   0  0  0  0  0  0  0  0  0  0  0  0
   21.8698   20.4058   38.1063 C   0  0  0  0  0  0  0  0  0  0  0  0
   22.1193   21.4639   38.6556 O   0  0  0  0  0  0  0  0  0  0  0  0
   22.1076   20.3090   36.7332 N   0  0  0  0  0  0  0  0  0  0  0  0
   22.3333   19.0983   35.9500 C   0  0  0  0  0  0  0  0  0  0  0  0
   23.2300   19.2251   34.7138 C   0  0  0  0  0  0  0  0  0  0  0  0
   23.3725   18.2646   33.9703 O   0  0  0  0  0  0  0  0  0  0  0  0
   23.8856   20.4393   34.5059 N   0  0  0  0  0  0  0  0  0  0  0  0
   24.8408   20.5896   33.4030 C   0  0  0  0  0  0  0  0  0  0  0  0
   24.2197   21.3391   32.2306 C   0  0  0  0  0  0  0  0  0  0  0  0
   23.8915   22.5142   32.2920 O   0  0  0  0  0  0  0  0  0  0  0  0
   24.0131   20.5815   31.1077 N   0  0  0  0  0  0  0  0  0  0  0  0
   23.7068   21.5637   35.4103 C   0  0  0  0  0  0  0  0  0  0  0  0
   22.3171   21.5497   36.0006 C   0  0  0  0  0  0  0  0  0  0  0  0
   20.9956   19.4649   40.1883 C   0  0  0  0  0  0  0  0  0  0  0  0
   21.7716   20.3251   41.1301 C   0  0  0  0  0  0  0  0  0  0  0  0
   21.1142   21.0323   42.1410 C   0  0  0  0  0  0  0  0  0  0  0  0
   19.7090   21.0126   42.1484 O   0  0  0  0  0  0  0  0  0  0  0  0
   19.0493   21.3217   43.3936 C   0  0  0  0  0  0  0  0  0  0  0  0
   17.7964   20.4569   43.4590 C   0  0  0  0  0  0  0  0  0  0  0  0
   18.6565   22.7951   43.4245 C   0  0  0  0  0  0  0  0  0  0  0  0
   21.8757   21.7616   43.0503 C   0  0  0  0  0  0  0  0  0  0  0  0
   23.2563   21.7891   42.9624 C   0  0  0  0  0  0  0  0  0  0  0  0
   23.8943   22.5765   43.9275 O   0  0  0  0  0  0  0  0  0  0  0  0
   25.3076   22.7240   43.7460 C   0  0  0  0  0  0  0  0  0  0  0  0
   23.9063   21.0582   41.9707 C   0  0  0  0  0  0  0  0  0  0  0  0
   23.1642   20.3191   41.0673 C   0  0  0  0  0  0  0  0  0  0  0  0
   20.0194   18.7282   40.6160 N   0  0  0  0  0  0  0  0  0  0  0  0
   19.4428   18.1096   39.4127 C   0  0  2  0  0  0  0  0  0  0  0  0
   18.7174   16.8082   39.7065 C   0  0  0  0  0  0  0  0  0  0  0  0
   18.3472   15.9313   38.6909 C   0  0  0  0  0  0  0  0  0  0  0  0
   17.6024   14.7940   38.9548 C   0  0  0  0  0  0  0  0  0  0  0  0
   17.2007   14.5231   40.2486 C   0  0  0  0  0  0  0  0  0  0  0  0
   16.2411   13.1255   40.5792 Cl  0  0  0  0  0  0  0  0  0  0  0  0
   17.5560   15.3755   41.2764 C   0  0  0  0  0  0  0  0  0  0  0  0
   18.3002   16.5096   41.0043 C   0  0  0  0  0  0  0  0  0  0  0  0
   21.5064   16.1100   37.2246 C   0  0  0  0  0  0  0  0  0  0  0  0
   22.2717   14.9598   37.1710 C   0  0  0  0  0  0  0  0  0  0  0  0
   23.5725   15.0574   40.2903 H   0  0  0  0  0  0  0  0  0  0  0  0
   22.2249   17.0720   40.3898 H   0  0  0  0  0  0  0  0  0  0  0  0
   20.1745   18.3417   37.3889 H   0  0  0  0  0  0  0  0  0  0  0  0
   22.7995   18.3588   36.6004 H   0  0  0  0  0  0  0  0  0  0  0  0
   21.3594   18.7416   35.6069 H   0  0  0  0  0  0  0  0  0  0  0  0
   25.7154   21.1456   33.7572 H   0  0  0  0  0  0  0  0  0  0  0  0
   25.1872   19.6053   33.0721 H   0  0  0  0  0  0  0  0  0  0  0  0
   23.6096   21.0128   30.2854 H   0  0  0  0  0  0  0  0  0  0  0  0
   24.2209   19.5894   31.0624 H   0  0  0  0  0  0  0  0  0  0  0  0
   24.4705   21.4871   36.1921 H   0  0  0  0  0  0  0  0  0  0  0  0
   23.8638   22.5006   34.8691 H   0  0  0  0  0  0  0  0  0  0  0  0
   21.5559   21.6018   35.2146 H   0  0  0  0  0  0  0  0  0  0  0  0
   22.1922   22.4243   36.6411 H   0  0  0  0  0  0  0  0  0  0  0  0
   19.6772   21.0665   44.2537 H   0  0  0  0  0  0  0  0  0  0  0  0
   17.2263   20.6424   44.3746 H   0  0  0  0  0  0  0  0  0  0  0  0
   18.0601   19.3956   43.4245 H   0  0  0  0  0  0  0  0  0  0  0  0
   17.1433   20.6407   42.5998 H   0  0  0  0  0  0  0  0  0  0  0  0
   19.5233   23.4448   43.2985 H   0  0  0  0  0  0  0  0  0  0  0  0
   18.1599   23.0561   44.3636 H   0  0  0  0  0  0  0  0  0  0  0  0
   17.9856   23.0363   42.5988 H   0  0  0  0  0  0  0  0  0  0  0  0
   21.4084   22.3408   43.8327 H   0  0  0  0  0  0  0  0  0  0  0  0
   25.8230   21.7691   43.8923 H   0  0  0  0  0  0  0  0  0  0  0  0
   25.6716   23.4173   44.5089 H   0  0  0  0  0  0  0  0  0  0  0  0
   25.5388   23.1554   42.7658 H   0  0  0  0  0  0  0  0  0  0  0  0
   24.9863   21.0402   41.8832 H   0  0  0  0  0  0  0  0  0  0  0  0
   23.6854   19.7367   40.3135 H   0  0  0  0  0  0  0  0  0  0  0  0
   18.6591   18.8003   39.0759 H   0  0  0  0  0  0  0  0  0  0  0  0
   18.6301   16.1409   37.6682 H   0  0  0  0  0  0  0  0  0  0  0  0
   17.3286   14.1258   38.1442 H   0  0  0  0  0  0  0  0  0  0  0  0
   17.2483   15.1690   42.2962 H   0  0  0  0  0  0  0  0  0  0  0  0
   18.5403   17.1771   41.8267 H   0  0  0  0  0  0  0  0  0  0  0  0
   20.9320   16.3779   36.3445 H   0  0  0  0  0  0  0  0  0  0  0  0
   22.2799   14.3618   36.2646 H   0  0  0  0  0  0  0  0  0  0  0  0
  2  1  1  0  0  0  0
  2  3  1  0  0  0  0
  2 44  2  0  0  0  0
  3 45  1  0  0  0  0
  3  4  2  0  0  0  0
  4 46  1  0  0  0  0
  4  5  1  0  0  0  0
  5 43  2  0  0  0  0
  6  5  1  0  0  0  0
  6 47  1  0  0  0  0
  6 35  1  0  0  0  0
  6  7  1  0  0  0  0
  7 21  1  0  0  0  0
  7  8  1  0  0  0  0
  8  9  2  0  0  0  0
  8 10  1  0  0  0  0
 10 20  1  0  0  0  0
 10 11  1  0  0  0  0
 11 12  1  0  0  0  0
 11 48  1  0  0  0  0
 11 49  1  0  0  0  0
 12 14  1  0  0  0  0
 12 13  2  0  0  0  0
 14 19  1  0  0  0  0
 14 15  1  0  0  0  0
 15 50  1  0  0  0  0
 15 51  1  0  0  0  0
 15 16  1  0  0  0  0
 16 17  2  0  0  0  0
 16 18  1  0  0  0  0
 18 52  1  0  0  0  0
 18 53  1  0  0  0  0
 19 20  1  0  0  0  0
 19 54  1  0  0  0  0
 19 55  1  0  0  0  0
 20 56  1  0  0  0  0
 20 57  1  0  0  0  0
 21 34  2  0  0  0  0
 21 22  1  0  0  0  0
 22 23  2  0  0  0  0
 22 33  1  0  0  0  0
 23 24  1  0  0  0  0
 23 28  1  0  0  0  0
 24 25  1  0  0  0  0
 25 58  1  0  0  0  0
 25 27  1  0  0  0  0
 25 26  1  0  0  0  0
 26 59  1  0  0  0  0
 26 60  1  0  0  0  0
 26 61  1  0  0  0  0
 27 62  1  0  0  0  0
 27 63  1  0  0  0  0
 27 64  1  0  0  0  0
 28 65  1  0  0  0  0
 28 29  2  0  0  0  0
 29 32  1  0  0  0  0
 29 30  1  0  0  0  0
 30 31  1  0  0  0  0
 31 66  1  0  0  0  0
 31 67  1  0  0  0  0
 31 68  1  0  0  0  0
 32 69  1  0  0  0  0
 32 33  2  0  0  0  0
 33 70  1  0  0  0  0
 35 34  1  0  0  0  0
 35 71  1  0  0  0  0
 35 36  1  0  0  0  0
 36 37  1  0  0  0  0
 36 42  2  0  0  0  0
 37 72  1  0  0  0  0
 37 38  2  0  0  0  0
 38 73  1  0  0  0  0
 38 39  1  0  0  0  0
 39 40  1  0  0  0  0
 39 41  2  0  0  0  0
 41 74  1  0  0  0  0
 41 42  1  0  0  0  0
 42 75  1  0  0  0  0
 43 76  1  0  0  0  0
 43 44  1  0  0  0  0
 44 77  1  0  0  0  0
M  ZZC   1 &Cl1
M  ZZC   2 c1
M  ZZC   3 c2
M  ZZC   4 c3
M  ZZC   5 c4
M  ZZC   6 c5
M  ZZC   7 n1
M  ZZC   8 c6
M  ZZC   9 o1
M  ZZC  10 n2
M  ZZC  11 c7
M  ZZC  12 c8
M  ZZC  13 o2
M  ZZC  14 n3
M  ZZC  15 c9
M  ZZC  16 c10
M  ZZC  17 o3
M  ZZC  18 n4
M  ZZC  19 c11
M  ZZC  20 c12
M  ZZC  21 c13
M  ZZC  22 c14
M  ZZC  23 c15
M  ZZC  24 o4
M  ZZC  25 c16
M  ZZC  26 c17
M  ZZC  27 c18
M  ZZC  28 c19
M  ZZC  29 c20
M  ZZC  30 o5
M  ZZC  31 c21
M  ZZC  32 c22
M  ZZC  33 c23
M  ZZC  34 n5
M  ZZC  35 c24
M  ZZC  36 c25
M  ZZC  37 c26
M  ZZC  38 c27
M  ZZC  39 c28
M  ZZC  40 &Cl2
M  ZZC  41 c29
M  ZZC  42 c30
M  ZZC  43 c31
M  ZZC  44 c32
M  ZZC  45 h21
M  ZZC  46 h31
M  ZZC  47 h51
M  ZZC  48 h71
M  ZZC  49 h72
M  ZZC  50 h91
M  ZZC  51 h92
M  ZZC  52 h41
M  ZZC  53 h42
M  ZZC  54 h111
M  ZZC  55 h112
M  ZZC  56 h121
M  ZZC  57 h122
M  ZZC  58 h161
M  ZZC  59 h171
M  ZZC  60 h172
M  ZZC  61 h173
M  ZZC  62 h181
M  ZZC  63 h182
M  ZZC  64 h183
M  ZZC  65 h191
M  ZZC  66 h211
M  ZZC  67 h212
M  ZZC  68 h213
M  ZZC  69 h221
M  ZZC  70 h231
M  ZZC  71 h241
M  ZZC  72 h261
M  ZZC  73 h271
M  ZZC  74 h291
M  ZZC  75 h301
M  ZZC  76 h311
M  ZZC  77 h321
M  ZZM   1 12
M  ZZI   1 92
M  ZZM   2 37
M  ZZI   2 124
M  ZZM   3 37
M  ZZI   3 125
M  ZZM   4 37
M  ZZI   4 125
M  ZZM   5 37
M  ZZI   5 124
M  ZZM   6 1
M  ZZI   6 113
M  ZZM   7 10
M  ZZI   7 192
M  ZZM   8 3
M  ZZI   8 121
M  ZZM   9 7
M  ZZI   9 81
M  ZZM  10 10
M  ZZI  10 192
M  ZZM  11 1
M  ZZI  11 112
M  ZZM  12 3
M  ZZI  12 121
M  ZZM  13 7
M  ZZI  13 81
M  ZZM  14 10
M  ZZI  14 192
M  ZZM  15 1
M  ZZI  15 112
M  ZZM  16 3
M  ZZI  16 121
M  ZZM  17 7
M  ZZI  17 81
M  ZZM  18 10
M  ZZI  18 212
M  ZZM  19 1
M  ZZI  19 112
M  ZZM  20 1
M  ZZI  20 112
M  ZZM  21 3
M  ZZI  21 121
M  ZZM  22 37
M  ZZI  22 124
M  ZZM  23 37
M  ZZI  23 124
M  ZZM  24 6
M  ZZI  24 59
M  ZZM  25 1
M  ZZI  25 113
M  ZZM  26 1
M  ZZI  26 111
M  ZZM  27 1
M  ZZI  27 111
M  ZZM  28 37
M  ZZI  28 125
M  ZZM  29 37
M  ZZI  29 124
M  ZZM  30 6
M  ZZI  30 59
M  ZZM  31 1
M  ZZI  31 111
M  ZZM  32 37
M  ZZI  32 125
M  ZZM  33 37
M  ZZI  33 125
M  ZZM  34 9
M  ZZI  34 220
M  ZZM  35 1
M  ZZI  35 113
M  ZZM  36 37
M  ZZI  36 124
M  ZZM  37 37
M  ZZI  37 125
M  ZZM  38 37
M  ZZI  38 125
M  ZZM  39 37
M  ZZI  39 124
M  ZZM  40 12
M  ZZI  40 92
M  ZZM  41 37
M  ZZI  41 125
M  ZZM  42 37
M  ZZI  42 125
M  ZZM  43 37
M  ZZI  43 125
M  ZZM  44 37
M  ZZI  44 125
M  ZZM  45 5
M  ZZI  45 1
M  ZZM  46 5
M  ZZI  46 1
M  ZZM  47 5
M  ZZI  47 1
M  ZZM  48 5
M  ZZI  48 1
M  ZZM  49 5
M  ZZI  49 1
M  ZZM  50 5
M  ZZI  50 1
M  ZZM  51 5
M  ZZI  51 1
M  ZZM  52 28
M  ZZI  52 11
M  ZZM  53 28
M  ZZI  53 11
M  ZZM  54 5
M  ZZI  54 1
M  ZZM  55 5
M  ZZI  55 1
M  ZZM  56 5
M  ZZI  56 1
M  ZZM  57 5
M  ZZI  57 1
M  ZZM  58 5
M  ZZI  58 1
M  ZZM  59 5
M  ZZI  59 1
M  ZZM  60 5
M  ZZI  60 1
M  ZZM  61 5
M  ZZI  61 1
M  ZZM  62 5
M  ZZI  62 1
M  ZZM  63 5
M  ZZI  63 1
M  ZZM  64 5
M  ZZI  64 1
M  ZZM  65 5
M  ZZI  65 1
M  ZZM  66 5
M  ZZI  66 1
M  ZZM  67 5
M  ZZI  67 1
M  ZZM  68 5
M  ZZI  68 1
M  ZZM  69 5
M  ZZI  69 1
M  ZZM  70 5
M  ZZI  70 1
M  ZZM  71 5
M  ZZI  71 1
M  ZZM  72 5
M  ZZI  72 1
M  ZZM  73 5
M  ZZI  73 1
M  ZZM  74 5
M  ZZI  74 1
M  ZZM  75 5
M  ZZI  75 1
M  ZZM  76 5
M  ZZI  76 1
M  ZZM  77 5
M  ZZI  77 1
M  END
> <IX>
1

> <NAME>
Mdm2_2EUF_15.pdb

> <Score>
-11.313022

> <Natom>
77

> <Nflex>
7

> <Hbond>
-2.298539

> <Hphob>
-6.158821

> <VwInt>
-29.827068

> <Dsolv>
14.630824

> <SolEl>
6.086607

> <Eintl>
15.442467

> <RecConf>
ND

> <projPath>
Mdm2_maps/

> <NAME_>
Mdm2_2EUF_15.pdb

$$$$
