Mdm2_5GMP_7.pdb
  MOLSOFT 04032206383D

 71 74  0  0  1  0  0  0  0  0999 V2000
   28.1985   20.2043   41.7511 Cl  0  0  0  0  0  0  0  0  0  0  0  0
   26.7131   19.3251   41.6417 C   0  0  0  0  0  0  0  0  0  0  0  0
   25.4990   19.9863   41.7430 C   0  0  0  0  0  0  0  0  0  0  0  0
   25.5005   21.3211   41.9041 F   0  0  0  0  0  0  0  0  0  0  0  0
   24.2829   19.3038   41.6830 C   0  0  0  0  0  0  0  0  0  0  0  0
   22.9726   20.0769   41.8203 C   0  0  1  0  0  0  0  0  0  0  0  0
   21.7960   19.6228   40.9417 C   0  0  2  0  0  0  0  0  0  0  0  0
   21.8770   20.1832   39.5216 C   0  0  0  0  0  0  0  0  0  0  0  0
   21.0244   20.8865   38.9976 O   0  0  0  0  0  0  0  0  0  0  0  0
   23.0378   19.8206   38.6913 N   0  5  0  0  0  0  0  0  0  0  0  0
   22.9629   20.3040   37.3040 C   0  0  0  0  0  0  0  0  0  0  0  0
   22.2691   19.6097   36.3088 C   0  0  0  0  0  0  0  0  0  0  0  0
   21.4566   18.5201   36.6288 O   0  0  0  0  0  0  0  0  0  0  0  0
   22.1587   17.3046   36.3380 C   0  0  0  0  0  0  0  0  0  0  0  0
   22.3501   20.0102   34.9824 C   0  0  0  0  0  0  0  0  0  0  0  0
   23.1596   21.0914   34.6348 C   0  0  0  0  0  0  0  0  0  0  0  0
   23.3702   21.4950   33.2104 C   0  0  0  0  0  0  0  0  0  0  0  0
   23.7942   22.6076   32.9386 O   0  0  0  0  0  0  0  0  0  0  0  0
   23.0819   20.5705   32.2399 N   0  0  0  0  0  0  0  0  0  0  0  0
   23.8021   21.8187   35.6352 C   0  0  0  0  0  0  0  0  0  0  0  0
   23.7074   21.4181   36.9586 C   0  0  0  0  0  0  0  0  0  0  0  0
   20.5770   20.0967   41.6379 N   0  0  0  0  0  0  0  0  0  0  0  0
   20.9668   20.7047   42.9207 C   0  0  1  0  0  0  0  0  0  0  0  0
   19.8954   20.5244   44.0264 C   0  0  0  0  0  0  0  0  0  0  0  0
   18.5127   21.2058   43.8354 C   0  0  0  0  0  0  0  0  0  0  0  0
   17.7057   20.5945   42.6812 C   0  0  0  0  0  0  0  0  0  0  0  0
   18.6618   22.7118   43.6014 C   0  0  0  0  0  0  0  0  0  0  0  0
   17.7045   20.9983   45.1238 C   0  0  0  0  0  0  0  0  0  0  0  0
   22.3558   20.1011   43.2385 C   0  0  1  0  0  0  0  0  0  0  0  0
   22.1807   18.7065   43.7114 C   0  0  0  0  0  0  0  0  0  0  0  0
   22.0098   17.6176   44.0783 N   0  0  0  0  0  0  0  0  0  0  0  0
   23.1329   20.9383   44.2693 C   0  0  0  0  0  0  0  0  0  0  0  0
   23.6016   22.2266   43.9938 C   0  0  0  0  0  0  0  0  0  0  0  0
   23.3630   22.7857   42.8024 F   0  0  0  0  0  0  0  0  0  0  0  0
   24.3068   22.9806   44.9095 C   0  0  0  0  0  0  0  0  0  0  0  0
   24.5476   22.4732   46.1675 C   0  0  0  0  0  0  0  0  0  0  0  0
   25.3908   23.4250   47.3349 Cl  0  0  0  0  0  0  0  0  0  0  0  0
   24.0910   21.2111   46.4935 C   0  0  0  0  0  0  0  0  0  0  0  0
   23.3965   20.4574   45.5601 C   0  0  0  0  0  0  0  0  0  0  0  0
   24.3428   17.9201   41.4924 C   0  0  0  0  0  0  0  0  0  0  0  0
   25.5547   17.2581   41.3852 C   0  0  0  0  0  0  0  0  0  0  0  0
   26.7456   17.9548   41.4619 C   0  0  0  0  0  0  0  0  0  0  0  0
   23.1961   21.0974   41.4942 H   0  0  0  0  0  0  0  0  0  0  0  0
   21.7299   18.5340   40.8484 H   0  0  0  0  0  0  0  0  0  0  0  0
   22.2262   17.1457   35.2567 H   0  0  0  0  0  0  0  0  0  0  0  0
   21.5930   16.4737   36.7678 H   0  0  0  0  0  0  0  0  0  0  0  0
   23.1603   17.3034   36.7810 H   0  0  0  0  0  0  0  0  0  0  0  0
   21.7791   19.4621   34.2436 H   0  0  0  0  0  0  0  0  0  0  0  0
   23.2323   20.8225   31.2704 H   0  0  0  0  0  0  0  0  0  0  0  0
   22.7831   19.6211   32.4258 H   0  0  0  0  0  0  0  0  0  0  0  0
   24.4177   22.6798   35.3950 H   0  0  0  0  0  0  0  0  0  0  0  0
   24.2472   21.9564   37.7304 H   0  0  0  0  0  0  0  0  0  0  0  0
   19.9286   19.3187   41.7671 H   0  0  0  0  0  0  0  0  0  0  0  0
   21.0825   21.7778   42.7366 H   0  0  0  0  0  0  0  0  0  0  0  0
   19.7199   19.4563   44.1942 H   0  0  0  0  0  0  0  0  0  0  0  0
   20.3236   20.8942   44.9646 H   0  0  0  0  0  0  0  0  0  0  0  0
   18.1132   20.8653   41.7046 H   0  0  0  0  0  0  0  0  0  0  0  0
   16.6695   20.9454   42.6918 H   0  0  0  0  0  0  0  0  0  0  0  0
   17.6754   19.5024   42.7468 H   0  0  0  0  0  0  0  0  0  0  0  0
   17.6878   23.2067   43.5852 H   0  0  0  0  0  0  0  0  0  0  0  0
   19.1529   22.9377   42.6507 H   0  0  0  0  0  0  0  0  0  0  0  0
   19.2444   23.1731   44.4008 H   0  0  0  0  0  0  0  0  0  0  0  0
   16.7098   21.4500   45.0524 H   0  0  0  0  0  0  0  0  0  0  0  0
   18.2044   21.4536   45.9832 H   0  0  0  0  0  0  0  0  0  0  0  0
   17.5717   19.9347   45.3470 H   0  0  0  0  0  0  0  0  0  0  0  0
   24.6535   23.9692   44.6325 H   0  0  0  0  0  0  0  0  0  0  0  0
   24.2686   20.8042   47.4847 H   0  0  0  0  0  0  0  0  0  0  0  0
   23.0577   19.4776   45.8815 H   0  0  0  0  0  0  0  0  0  0  0  0
   23.4380   17.3258   41.4229 H   0  0  0  0  0  0  0  0  0  0  0  0
   25.5684   16.1825   41.2380 H   0  0  0  0  0  0  0  0  0  0  0  0
   27.6899   17.4251   41.3788 H   0  0  0  0  0  0  0  0  0  0  0  0
  2  1  1  0  0  0  0
  2  3  2  0  0  0  0
  2 42  1  0  0  0  0
  3  4  1  0  0  0  0
  3  5  1  0  0  0  0
  5 40  2  0  0  0  0
  6  5  1  0  0  0  0
  6 43  1  0  0  0  0
  6 29  1  0  0  0  0
  6  7  1  0  0  0  0
  7 22  1  0  0  0  0
  7 44  1  0  0  0  0
  7  8  1  0  0  0  0
  8  9  2  0  0  0  0
  8 10  1  0  0  0  0
 10 11  1  0  0  0  0
 11 21  1  0  0  0  0
 11 12  2  0  0  0  0
 12 15  1  0  0  0  0
 12 13  1  0  0  0  0
 13 14  1  0  0  0  0
 14 45  1  0  0  0  0
 14 46  1  0  0  0  0
 14 47  1  0  0  0  0
 15 16  2  0  0  0  0
 15 48  1  0  0  0  0
 16 20  1  0  0  0  0
 16 17  1  0  0  0  0
 17 18  2  0  0  0  0
 17 19  1  0  0  0  0
 19 49  1  0  0  0  0
 19 50  1  0  0  0  0
 20 21  2  0  0  0  0
 20 51  1  0  0  0  0
 21 52  1  0  0  0  0
 23 22  1  0  0  0  0
 22 53  1  0  0  0  0
 23 29  1  0  0  0  0
 23 54  1  0  0  0  0
 23 24  1  0  0  0  0
 24 55  1  0  0  0  0
 24 56  1  0  0  0  0
 24 25  1  0  0  0  0
 25 26  1  0  0  0  0
 25 27  1  0  0  0  0
 25 28  1  0  0  0  0
 26 57  1  0  0  0  0
 26 58  1  0  0  0  0
 26 59  1  0  0  0  0
 27 60  1  0  0  0  0
 27 61  1  0  0  0  0
 27 62  1  0  0  0  0
 28 63  1  0  0  0  0
 28 64  1  0  0  0  0
 28 65  1  0  0  0  0
 29 30  1  0  0  0  0
 29 32  1  0  0  0  0
 30 31  3  0  0  0  0
 32 33  1  0  0  0  0
 32 39  2  0  0  0  0
 33 34  1  0  0  0  0
 33 35  2  0  0  0  0
 35 66  1  0  0  0  0
 35 36  1  0  0  0  0
 36 37  1  0  0  0  0
 36 38  2  0  0  0  0
 38 67  1  0  0  0  0
 38 39  1  0  0  0  0
 39 68  1  0  0  0  0
 40 69  1  0  0  0  0
 40 41  1  0  0  0  0
 41 70  1  0  0  0  0
 41 42  2  0  0  0  0
 42 71  1  0  0  0  0
M  ZZC   1 &Cl1
M  ZZC   2 c1
M  ZZC   3 c2
M  ZZC   4 f1
M  ZZC   5 c3
M  ZZC   6 c4
M  ZZC   7 c5
M  ZZC   8 c6
M  ZZC   9 o1
M  ZZC  10 n1
M  ZZC  11 c7
M  ZZC  12 c8
M  ZZC  13 o2
M  ZZC  14 c9
M  ZZC  15 c10
M  ZZC  16 c11
M  ZZC  17 c12
M  ZZC  18 o3
M  ZZC  19 n2
M  ZZC  20 c13
M  ZZC  21 c14
M  ZZC  22 n3
M  ZZC  23 c15
M  ZZC  24 c16
M  ZZC  25 c17
M  ZZC  26 c18
M  ZZC  27 c19
M  ZZC  28 c20
M  ZZC  29 c21
M  ZZC  30 c22
M  ZZC  31 n4
M  ZZC  32 c23
M  ZZC  33 c24
M  ZZC  34 f2
M  ZZC  35 c25
M  ZZC  36 c26
M  ZZC  37 &Cl2
M  ZZC  38 c27
M  ZZC  39 c28
M  ZZC  40 c29
M  ZZC  41 c30
M  ZZC  42 c31
M  ZZC  43 h41
M  ZZC  44 h51
M  ZZC  45 h91
M  ZZC  46 h92
M  ZZC  47 h93
M  ZZC  48 h101
M  ZZC  49 h21
M  ZZC  50 h22
M  ZZC  51 h131
M  ZZC  52 h141
M  ZZC  53 h31
M  ZZC  54 h151
M  ZZC  55 h161
M  ZZC  56 h162
M  ZZC  57 h181
M  ZZC  58 h182
M  ZZC  59 h183
M  ZZC  60 h191
M  ZZC  61 h192
M  ZZC  62 h193
M  ZZC  63 h201
M  ZZC  64 h202
M  ZZC  65 h203
M  ZZC  66 h251
M  ZZC  67 h271
M  ZZC  68 h281
M  ZZC  69 h291
M  ZZC  70 h301
M  ZZC  71 h311
M  ZZM   1 12
M  ZZI   1 92
M  ZZM   2 37
M  ZZI   2 124
M  ZZM   3 37
M  ZZI   3 124
M  ZZM   4 11
M  ZZI   4 90
M  ZZM   5 37
M  ZZI   5 124
M  ZZM   6 1
M  ZZI   6 113
M  ZZM   7 1
M  ZZI   7 113
M  ZZM   8 3
M  ZZI   8 122
M  ZZM   9 7
M  ZZI   9 80
M  ZZM  10 76
M  ZZI  10 239
M  ZZM  11 37
M  ZZI  11 124
M  ZZM  12 37
M  ZZI  12 124
M  ZZM  13 6
M  ZZI  13 59
M  ZZM  14 1
M  ZZI  14 111
M  ZZM  15 37
M  ZZI  15 125
M  ZZM  16 37
M  ZZI  16 124
M  ZZM  17 3
M  ZZI  17 121
M  ZZM  18 7
M  ZZI  18 81
M  ZZM  19 10
M  ZZI  19 212
M  ZZM  20 37
M  ZZI  20 125
M  ZZM  21 37
M  ZZI  21 125
M  ZZM  22 8
M  ZZI  22 214
M  ZZM  23 1
M  ZZI  23 113
M  ZZM  24 1
M  ZZI  24 112
M  ZZM  25 1
M  ZZI  25 110
M  ZZM  26 1
M  ZZI  26 111
M  ZZM  27 1
M  ZZI  27 111
M  ZZM  28 1
M  ZZI  28 111
M  ZZM  29 1
M  ZZI  29 110
M  ZZM  30 4
M  ZZI  30 130
M  ZZM  31 42
M  ZZI  31 225
M  ZZM  32 37
M  ZZI  32 124
M  ZZM  33 37
M  ZZI  33 124
M  ZZM  34 11
M  ZZI  34 90
M  ZZM  35 37
M  ZZI  35 125
M  ZZM  36 37
M  ZZI  36 124
M  ZZM  37 12
M  ZZI  37 92
M  ZZM  38 37
M  ZZI  38 125
M  ZZM  39 37
M  ZZI  39 125
M  ZZM  40 37
M  ZZI  40 125
M  ZZM  41 37
M  ZZI  41 125
M  ZZM  42 37
M  ZZI  42 125
M  ZZM  43 5
M  ZZI  43 1
M  ZZM  44 5
M  ZZI  44 1
M  ZZM  45 5
M  ZZI  45 1
M  ZZM  46 5
M  ZZI  46 1
M  ZZM  47 5
M  ZZI  47 1
M  ZZM  48 5
M  ZZI  48 1
M  ZZM  49 28
M  ZZI  49 11
M  ZZM  50 28
M  ZZI  50 11
M  ZZM  51 5
M  ZZI  51 1
M  ZZM  52 5
M  ZZI  52 1
M  ZZM  53 23
M  ZZI  53 10
M  ZZM  54 5
M  ZZI  54 1
M  ZZM  55 5
M  ZZI  55 1
M  ZZM  56 5
M  ZZI  56 1
M  ZZM  57 5
M  ZZI  57 1
M  ZZM  58 5
M  ZZI  58 1
M  ZZM  59 5
M  ZZI  59 1
M  ZZM  60 5
M  ZZI  60 1
M  ZZM  61 5
M  ZZI  61 1
M  ZZM  62 5
M  ZZI  62 1
M  ZZM  63 5
M  ZZI  63 1
M  ZZM  64 5
M  ZZI  64 1
M  ZZM  65 5
M  ZZI  65 1
M  ZZM  66 5
M  ZZI  66 1
M  ZZM  67 5
M  ZZI  67 1
M  ZZM  68 5
M  ZZI  68 1
M  ZZM  69 5
M  ZZI  69 1
M  ZZM  70 5
M  ZZI  70 1
M  ZZM  71 5
M  ZZI  71 1
M  CHG  1  10  -1
M  END
> <IX>
1

> <NAME>
Mdm2_5GMP_7.pdb

> <Score>
-13.696027

> <Natom>
71

> <Nflex>
5

> <Hbond>
-2.207089

> <Hphob>
-4.90139

> <VwInt>
-27.487658

> <Dsolv>
13.067464

> <SolEl>
11.763715

> <Eintl>
3.491412

> <RecConf>
ND

> <projPath>
Mdm2_maps/

> <NAME_>
Mdm2_5GMP_7.pdb

$$$$
