Mdm2_5GMP_9.pdb
  MOLSOFT 04032206393D

 71 74  0  0  1  0  0  0  0  0999 V2000
   23.1563   13.3518   39.5675 Cl  0  0  0  0  0  0  0  0  0  0  0  0
   21.9067   14.5035   39.2495 C   0  0  0  0  0  0  0  0  0  0  0  0
   21.8745   15.7101   39.9309 C   0  0  0  0  0  0  0  0  0  0  0  0
   22.8357   15.9708   40.8339 F   0  0  0  0  0  0  0  0  0  0  0  0
   20.8779   16.6591   39.7015 C   0  0  0  0  0  0  0  0  0  0  0  0
   20.8773   17.9587   40.5018 C   0  0  1  0  0  0  0  0  0  0  0  0
   20.3920   19.2163   39.7796 C   0  0  2  0  0  0  0  0  0  0  0  0
   21.4072   19.6849   38.7378 C   0  0  0  0  0  0  0  0  0  0  0  0
   22.5314   20.0956   38.9997 O   0  0  0  0  0  0  0  0  0  0  0  0
   21.0166   19.6075   37.3164 N   0  5  0  0  0  0  0  0  0  0  0  0
   22.0136   20.0520   36.3209 C   0  0  0  0  0  0  0  0  0  0  0  0
   22.5042   19.1762   35.3458 C   0  0  0  0  0  0  0  0  0  0  0  0
   22.1155   17.8277   35.4366 O   0  0  0  0  0  0  0  0  0  0  0  0
   22.7848   16.9297   34.5458 C   0  0  0  0  0  0  0  0  0  0  0  0
   23.3189   19.6753   34.3230 C   0  0  0  0  0  0  0  0  0  0  0  0
   23.6453   21.0307   34.2908 C   0  0  0  0  0  0  0  0  0  0  0  0
   24.4549   21.6201   33.1870 C   0  0  0  0  0  0  0  0  0  0  0  0
   24.2648   22.7732   32.8347 O   0  0  0  0  0  0  0  0  0  0  0  0
   25.4027   20.8247   32.6041 N   0  0  0  0  0  0  0  0  0  0  0  0
   23.1815   21.8844   35.2828 C   0  0  0  0  0  0  0  0  0  0  0  0
   22.3775   21.3890   36.2885 C   0  0  0  0  0  0  0  0  0  0  0  0
   20.2285   20.2004   40.8709 N   0  0  0  0  0  0  0  0  0  0  0  0
   19.9687   19.4719   42.1274 C   0  0  1  0  0  0  0  0  0  0  0  0
   18.6882   19.9287   42.8669 C   0  0  0  0  0  0  0  0  0  0  0  0
   18.7971   21.1663   43.7921 C   0  0  0  0  0  0  0  0  0  0  0  0
   19.2488   22.4261   43.0451 C   0  0  0  0  0  0  0  0  0  0  0  0
   17.4060   21.4215   44.3788 C   0  0  0  0  0  0  0  0  0  0  0  0
   19.7581   20.9054   44.9610 C   0  0  0  0  0  0  0  0  0  0  0  0
   20.0070   17.9597   41.7790 C   0  0  1  0  0  0  0  0  0  0  0  0
   18.6419   17.4969   41.4261 C   0  0  0  0  0  0  0  0  0  0  0  0
   17.5815   17.1244   41.1331 N   0  0  0  0  0  0  0  0  0  0  0  0
   20.6279   17.1684   42.9447 C   0  0  0  0  0  0  0  0  0  0  0  0
   19.9225   16.2089   43.6837 C   0  0  0  0  0  0  0  0  0  0  0  0
   18.6418   15.9319   43.4021 F   0  0  0  0  0  0  0  0  0  0  0  0
   20.4886   15.5124   44.7336 C   0  0  0  0  0  0  0  0  0  0  0  0
   21.7972   15.7618   45.0908 C   0  0  0  0  0  0  0  0  0  0  0  0
   22.5160   14.8980   46.4020 Cl  0  0  0  0  0  0  0  0  0  0  0  0
   22.5280   16.7085   44.4010 C   0  0  0  0  0  0  0  0  0  0  0  0
   21.9500   17.4003   43.3504 C   0  0  0  0  0  0  0  0  0  0  0  0
   19.9164   16.3479   38.7370 C   0  0  0  0  0  0  0  0  0  0  0  0
   19.9405   15.1355   38.0675 C   0  0  0  0  0  0  0  0  0  0  0  0
   20.9327   14.2083   38.3154 C   0  0  0  0  0  0  0  0  0  0  0  0
   21.9259   18.1477   40.7609 H   0  0  0  0  0  0  0  0  0  0  0  0
   19.4226   19.0763   39.2879 H   0  0  0  0  0  0  0  0  0  0  0  0
   22.4989   17.1975   33.5252 H   0  0  0  0  0  0  0  0  0  0  0  0
   22.4726   15.8944   34.7175 H   0  0  0  0  0  0  0  0  0  0  0  0
   23.8713   17.0352   34.6238 H   0  0  0  0  0  0  0  0  0  0  0  0
   23.6610   19.0278   33.5261 H   0  0  0  0  0  0  0  0  0  0  0  0
   25.9623   21.2222   31.8579 H   0  0  0  0  0  0  0  0  0  0  0  0
   25.6212   19.8843   32.9110 H   0  0  0  0  0  0  0  0  0  0  0  0
   23.4349   22.9396   35.2842 H   0  0  0  0  0  0  0  0  0  0  0  0
   22.0307   22.0575   37.0639 H   0  0  0  0  0  0  0  0  0  0  0  0
   19.5211   20.9041   40.6483 H   0  0  0  0  0  0  0  0  0  0  0  0
   20.8230   19.7119   42.7641 H   0  0  0  0  0  0  0  0  0  0  0  0
   17.8949   20.1052   42.1304 H   0  0  0  0  0  0  0  0  0  0  0  0
   18.3258   19.1008   43.4866 H   0  0  0  0  0  0  0  0  0  0  0  0
   20.2734   22.3382   42.6728 H   0  0  0  0  0  0  0  0  0  0  0  0
   19.2207   23.3019   43.6994 H   0  0  0  0  0  0  0  0  0  0  0  0
   18.5962   22.6417   42.1956 H   0  0  0  0  0  0  0  0  0  0  0  0
   17.3908   22.3367   44.9755 H   0  0  0  0  0  0  0  0  0  0  0  0
   17.0801   20.5988   45.0236 H   0  0  0  0  0  0  0  0  0  0  0  0
   16.6612   21.5262   43.5876 H   0  0  0  0  0  0  0  0  0  0  0  0
   19.6887   21.6996   45.7105 H   0  0  0  0  0  0  0  0  0  0  0  0
   20.8014   20.8593   44.6364 H   0  0  0  0  0  0  0  0  0  0  0  0
   19.5263   19.9633   45.4679 H   0  0  0  0  0  0  0  0  0  0  0  0
   19.8947   14.7785   45.2685 H   0  0  0  0  0  0  0  0  0  0  0  0
   23.5576   16.9162   44.6775 H   0  0  0  0  0  0  0  0  0  0  0  0
   22.5655   18.1384   42.8441 H   0  0  0  0  0  0  0  0  0  0  0  0
   19.1218   17.0453   38.4914 H   0  0  0  0  0  0  0  0  0  0  0  0
   19.1734   14.9097   37.3359 H   0  0  0  0  0  0  0  0  0  0  0  0
   20.9406   13.2658   37.7763 H   0  0  0  0  0  0  0  0  0  0  0  0
  2  1  1  0  0  0  0
  2  3  2  0  0  0  0
  2 42  1  0  0  0  0
  3  4  1  0  0  0  0
  3  5  1  0  0  0  0
  5 40  2  0  0  0  0
  6  5  1  0  0  0  0
  6 43  1  0  0  0  0
  6 29  1  0  0  0  0
  6  7  1  0  0  0  0
  7 22  1  0  0  0  0
  7 44  1  0  0  0  0
  7  8  1  0  0  0  0
  8  9  2  0  0  0  0
  8 10  1  0  0  0  0
 10 11  1  0  0  0  0
 11 21  1  0  0  0  0
 11 12  2  0  0  0  0
 12 15  1  0  0  0  0
 12 13  1  0  0  0  0
 13 14  1  0  0  0  0
 14 45  1  0  0  0  0
 14 46  1  0  0  0  0
 14 47  1  0  0  0  0
 15 16  2  0  0  0  0
 15 48  1  0  0  0  0
 16 20  1  0  0  0  0
 16 17  1  0  0  0  0
 17 18  2  0  0  0  0
 17 19  1  0  0  0  0
 19 49  1  0  0  0  0
 19 50  1  0  0  0  0
 20 21  2  0  0  0  0
 20 51  1  0  0  0  0
 21 52  1  0  0  0  0
 23 22  1  0  0  0  0
 22 53  1  0  0  0  0
 23 29  1  0  0  0  0
 23 54  1  0  0  0  0
 23 24  1  0  0  0  0
 24 55  1  0  0  0  0
 24 56  1  0  0  0  0
 24 25  1  0  0  0  0
 25 26  1  0  0  0  0
 25 27  1  0  0  0  0
 25 28  1  0  0  0  0
 26 57  1  0  0  0  0
 26 58  1  0  0  0  0
 26 59  1  0  0  0  0
 27 60  1  0  0  0  0
 27 61  1  0  0  0  0
 27 62  1  0  0  0  0
 28 63  1  0  0  0  0
 28 64  1  0  0  0  0
 28 65  1  0  0  0  0
 29 30  1  0  0  0  0
 29 32  1  0  0  0  0
 30 31  3  0  0  0  0
 32 33  1  0  0  0  0
 32 39  2  0  0  0  0
 33 34  1  0  0  0  0
 33 35  2  0  0  0  0
 35 66  1  0  0  0  0
 35 36  1  0  0  0  0
 36 37  1  0  0  0  0
 36 38  2  0  0  0  0
 38 67  1  0  0  0  0
 38 39  1  0  0  0  0
 39 68  1  0  0  0  0
 40 69  1  0  0  0  0
 40 41  1  0  0  0  0
 41 70  1  0  0  0  0
 41 42  2  0  0  0  0
 42 71  1  0  0  0  0
M  ZZC   1 &Cl1
M  ZZC   2 c1
M  ZZC   3 c2
M  ZZC   4 f1
M  ZZC   5 c3
M  ZZC   6 c4
M  ZZC   7 c5
M  ZZC   8 c6
M  ZZC   9 o1
M  ZZC  10 n1
M  ZZC  11 c7
M  ZZC  12 c8
M  ZZC  13 o2
M  ZZC  14 c9
M  ZZC  15 c10
M  ZZC  16 c11
M  ZZC  17 c12
M  ZZC  18 o3
M  ZZC  19 n2
M  ZZC  20 c13
M  ZZC  21 c14
M  ZZC  22 n3
M  ZZC  23 c15
M  ZZC  24 c16
M  ZZC  25 c17
M  ZZC  26 c18
M  ZZC  27 c19
M  ZZC  28 c20
M  ZZC  29 c21
M  ZZC  30 c22
M  ZZC  31 n4
M  ZZC  32 c23
M  ZZC  33 c24
M  ZZC  34 f2
M  ZZC  35 c25
M  ZZC  36 c26
M  ZZC  37 &Cl2
M  ZZC  38 c27
M  ZZC  39 c28
M  ZZC  40 c29
M  ZZC  41 c30
M  ZZC  42 c31
M  ZZC  43 h41
M  ZZC  44 h51
M  ZZC  45 h91
M  ZZC  46 h92
M  ZZC  47 h93
M  ZZC  48 h101
M  ZZC  49 h21
M  ZZC  50 h22
M  ZZC  51 h131
M  ZZC  52 h141
M  ZZC  53 h31
M  ZZC  54 h151
M  ZZC  55 h161
M  ZZC  56 h162
M  ZZC  57 h181
M  ZZC  58 h182
M  ZZC  59 h183
M  ZZC  60 h191
M  ZZC  61 h192
M  ZZC  62 h193
M  ZZC  63 h201
M  ZZC  64 h202
M  ZZC  65 h203
M  ZZC  66 h251
M  ZZC  67 h271
M  ZZC  68 h281
M  ZZC  69 h291
M  ZZC  70 h301
M  ZZC  71 h311
M  ZZM   1 12
M  ZZI   1 92
M  ZZM   2 37
M  ZZI   2 124
M  ZZM   3 37
M  ZZI   3 124
M  ZZM   4 11
M  ZZI   4 90
M  ZZM   5 37
M  ZZI   5 124
M  ZZM   6 1
M  ZZI   6 113
M  ZZM   7 1
M  ZZI   7 113
M  ZZM   8 3
M  ZZI   8 122
M  ZZM   9 7
M  ZZI   9 80
M  ZZM  10 76
M  ZZI  10 239
M  ZZM  11 37
M  ZZI  11 124
M  ZZM  12 37
M  ZZI  12 124
M  ZZM  13 6
M  ZZI  13 59
M  ZZM  14 1
M  ZZI  14 111
M  ZZM  15 37
M  ZZI  15 125
M  ZZM  16 37
M  ZZI  16 124
M  ZZM  17 3
M  ZZI  17 121
M  ZZM  18 7
M  ZZI  18 81
M  ZZM  19 10
M  ZZI  19 212
M  ZZM  20 37
M  ZZI  20 125
M  ZZM  21 37
M  ZZI  21 125
M  ZZM  22 8
M  ZZI  22 214
M  ZZM  23 1
M  ZZI  23 113
M  ZZM  24 1
M  ZZI  24 112
M  ZZM  25 1
M  ZZI  25 110
M  ZZM  26 1
M  ZZI  26 111
M  ZZM  27 1
M  ZZI  27 111
M  ZZM  28 1
M  ZZI  28 111
M  ZZM  29 1
M  ZZI  29 110
M  ZZM  30 4
M  ZZI  30 130
M  ZZM  31 42
M  ZZI  31 225
M  ZZM  32 37
M  ZZI  32 124
M  ZZM  33 37
M  ZZI  33 124
M  ZZM  34 11
M  ZZI  34 90
M  ZZM  35 37
M  ZZI  35 125
M  ZZM  36 37
M  ZZI  36 124
M  ZZM  37 12
M  ZZI  37 92
M  ZZM  38 37
M  ZZI  38 125
M  ZZM  39 37
M  ZZI  39 125
M  ZZM  40 37
M  ZZI  40 125
M  ZZM  41 37
M  ZZI  41 125
M  ZZM  42 37
M  ZZI  42 125
M  ZZM  43 5
M  ZZI  43 1
M  ZZM  44 5
M  ZZI  44 1
M  ZZM  45 5
M  ZZI  45 1
M  ZZM  46 5
M  ZZI  46 1
M  ZZM  47 5
M  ZZI  47 1
M  ZZM  48 5
M  ZZI  48 1
M  ZZM  49 28
M  ZZI  49 11
M  ZZM  50 28
M  ZZI  50 11
M  ZZM  51 5
M  ZZI  51 1
M  ZZM  52 5
M  ZZI  52 1
M  ZZM  53 23
M  ZZI  53 10
M  ZZM  54 5
M  ZZI  54 1
M  ZZM  55 5
M  ZZI  55 1
M  ZZM  56 5
M  ZZI  56 1
M  ZZM  57 5
M  ZZI  57 1
M  ZZM  58 5
M  ZZI  58 1
M  ZZM  59 5
M  ZZI  59 1
M  ZZM  60 5
M  ZZI  60 1
M  ZZM  61 5
M  ZZI  61 1
M  ZZM  62 5
M  ZZI  62 1
M  ZZM  63 5
M  ZZI  63 1
M  ZZM  64 5
M  ZZI  64 1
M  ZZM  65 5
M  ZZI  65 1
M  ZZM  66 5
M  ZZI  66 1
M  ZZM  67 5
M  ZZI  67 1
M  ZZM  68 5
M  ZZI  68 1
M  ZZM  69 5
M  ZZI  69 1
M  ZZM  70 5
M  ZZI  70 1
M  ZZM  71 5
M  ZZI  71 1
M  CHG  1  10  -1
M  END
> <IX>
1

> <NAME>
Mdm2_5GMP_9.pdb

> <Score>
-11.72842

> <Natom>
71

> <Nflex>
5

> <Hbond>
-4.157732

> <Hphob>
-4.927925

> <VwInt>
-25.191154

> <Dsolv>
13.15282

> <SolEl>
15.761159

> <Eintl>
6.69421

> <RecConf>
ND

> <projPath>
Mdm2_maps/

> <NAME_>
Mdm2_5GMP_9.pdb

$$$$
