Mdm2_3K6P_23.pdb
  MOLSOFT 04032206383D

 70 74  0  0  1  0  0  0  0  0999 V2000
   -0.7820   36.0278   37.8665 Cl  0  0  0  0  0  0  0  0  0  0  0  0
    0.7519   36.6447   37.3671 C   0  0  0  0  0  0  0  0  0  0  0  0
    0.8315   37.8517   36.6945 C   0  0  0  0  0  0  0  0  0  0  0  0
    2.0638   38.3409   36.2924 C   0  0  0  0  0  0  0  0  0  0  0  0
    3.2363   37.6286   36.5511 C   0  0  0  0  0  0  0  0  0  0  0  0
    4.6162   38.1234   36.1273 C   0  0  1  0  0  0  0  0  0  0  0  0
    4.6370   38.7326   34.8115 N   0  0  0  0  0  0  0  0  0  0  0  0
    4.3059   38.1108   33.6043 C   0  0  0  0  0  0  0  0  0  0  0  0
    4.1153   38.7427   32.5770 O   0  0  0  0  0  0  0  0  0  0  0  0
    4.1002   36.7371   33.6288 N   0  0  0  0  0  0  0  0  0  0  0  0
    2.9145   36.1782   32.9745 C   0  0  0  0  0  0  0  0  0  0  0  0
    3.0938   34.8431   32.2625 C   0  0  0  0  0  0  0  0  0  0  0  0
    2.2068   34.3652   31.5719 O   0  0  0  0  0  0  0  0  0  0  0  0
    4.2632   34.1566   32.5003 N   0  0  0  0  0  0  0  0  0  0  0  0
    5.4137   34.7530   33.1379 C   0  0  0  0  0  0  0  0  0  0  0  0
    5.0343   35.7761   34.1908 C   0  0  0  0  0  0  0  0  0  0  0  0
    4.9098   40.0796   34.9994 C   0  0  0  0  0  0  0  0  0  0  0  0
    4.7907   41.0722   33.9009 C   0  0  0  0  0  0  0  0  0  0  0  0
    5.9113   41.6808   33.3255 C   0  0  0  0  0  0  0  0  0  0  0  0
    7.1835   41.2691   33.7725 O   0  0  0  0  0  0  0  0  0  0  0  0
    8.3394   41.8900   33.1588 C   0  0  0  0  0  0  0  0  0  0  0  0
    8.6487   41.2243   31.8173 C   0  0  0  0  0  0  0  0  0  0  0  0
    9.5304   41.7346   34.1016 C   0  0  0  0  0  0  0  0  0  0  0  0
    5.7007   42.6551   32.3423 C   0  0  0  0  0  0  0  0  0  0  0  0
    4.4061   43.0084   31.9576 C   0  0  0  0  0  0  0  0  0  0  0  0
    4.0879   43.9576   30.9775 O   0  0  0  0  0  0  0  0  0  0  0  0
    5.2088   44.6136   30.3712 C   0  0  0  0  0  0  0  0  0  0  0  0
    3.3163   42.4033   32.5544 C   0  0  0  0  0  0  0  0  0  0  0  0
    3.5024   41.4460   33.5312 C   0  0  0  0  0  0  0  0  0  0  0  0
    5.2119   40.4528   36.2031 N   0  0  0  0  0  0  0  0  0  0  0  0
    5.2198   39.2160   37.0134 C   0  0  1  0  0  0  0  0  0  0  0  0
    4.6101   39.3530   38.3912 C   0  0  0  0  0  0  0  0  0  0  0  0
    4.9583   38.4439   39.3877 C   0  0  0  0  0  0  0  0  0  0  0  0
    4.4230   38.5460   40.6557 C   0  0  0  0  0  0  0  0  0  0  0  0
    3.5360   39.5667   40.9469 C   0  0  0  0  0  0  0  0  0  0  0  0
    2.8745   39.7099   42.5333 Cl  0  0  0  0  0  0  0  0  0  0  0  0
    3.1801   40.4819   39.9735 C   0  0  0  0  0  0  0  0  0  0  0  0
    3.7131   40.3741   38.7015 C   0  0  0  0  0  0  0  0  0  0  0  0
    3.1256   36.4212   37.2398 C   0  0  0  0  0  0  0  0  0  0  0  0
    1.8990   35.9289   37.6458 C   0  0  0  0  0  0  0  0  0  0  0  0
   -0.0674   38.4216   36.4807 H   0  0  0  0  0  0  0  0  0  0  0  0
    2.0999   39.2938   35.7751 H   0  0  0  0  0  0  0  0  0  0  0  0
    5.3052   37.2777   36.1390 H   0  0  0  0  0  0  0  0  0  0  0  0
    2.1758   36.0153   33.7660 H   0  0  0  0  0  0  0  0  0  0  0  0
    2.4859   36.9047   32.2777 H   0  0  0  0  0  0  0  0  0  0  0  0
    4.3713   33.2666   32.0238 H   0  0  0  0  0  0  0  0  0  0  0  0
    6.0380   33.9570   33.5497 H   0  0  0  0  0  0  0  0  0  0  0  0
    5.9818   35.2385   32.3500 H   0  0  0  0  0  0  0  0  0  0  0  0
    5.9449   36.2757   34.5313 H   0  0  0  0  0  0  0  0  0  0  0  0
    4.5409   35.2940   35.0367 H   0  0  0  0  0  0  0  0  0  0  0  0
    8.1877   42.9659   33.0320 H   0  0  0  0  0  0  0  0  0  0  0  0
    9.5664   41.6230   31.3750 H   0  0  0  0  0  0  0  0  0  0  0  0
    7.8407   41.3637   31.0955 H   0  0  0  0  0  0  0  0  0  0  0  0
    8.7604   40.1461   31.9324 H   0  0  0  0  0  0  0  0  0  0  0  0
    9.4086   42.3305   35.0107 H   0  0  0  0  0  0  0  0  0  0  0  0
   10.4695   42.0184   33.6228 H   0  0  0  0  0  0  0  0  0  0  0  0
    9.6516   40.6931   34.4061 H   0  0  0  0  0  0  0  0  0  0  0  0
    6.5387   43.1418   31.8672 H   0  0  0  0  0  0  0  0  0  0  0  0
    5.7721   45.1147   31.1629 H   0  0  0  0  0  0  0  0  0  0  0  0
    4.8786   45.3805   29.6621 H   0  0  0  0  0  0  0  0  0  0  0  0
    5.8785   43.8909   29.8927 H   0  0  0  0  0  0  0  0  0  0  0  0
    2.3104   42.6817   32.2559 H   0  0  0  0  0  0  0  0  0  0  0  0
    2.6346   40.9896   33.9969 H   0  0  0  0  0  0  0  0  0  0  0  0
    6.2772   38.9817   37.1639 H   0  0  0  0  0  0  0  0  0  0  0  0
    5.6597   37.6413   39.1799 H   0  0  0  0  0  0  0  0  0  0  0  0
    4.7170   37.8268   41.4104 H   0  0  0  0  0  0  0  0  0  0  0  0
    2.4869   41.2862   40.1986 H   0  0  0  0  0  0  0  0  0  0  0  0
    3.4245   41.1016   37.9486 H   0  0  0  0  0  0  0  0  0  0  0  0
    4.0153   35.8455   37.4685 H   0  0  0  0  0  0  0  0  0  0  0  0
    1.8438   34.9849   38.1794 H   0  0  0  0  0  0  0  0  0  0  0  0
  2  1  1  0  0  0  0
  2  3  1  0  0  0  0
  2 40  2  0  0  0  0
  3 41  1  0  0  0  0
  3  4  2  0  0  0  0
  4 42  1  0  0  0  0
  4  5  1  0  0  0  0
  5 39  2  0  0  0  0
  6  5  1  0  0  0  0
  6 43  1  0  0  0  0
  6 31  1  0  0  0  0
  6  7  1  0  0  0  0
  7 17  1  0  0  0  0
  7  8  1  0  0  0  0
  8  9  2  0  0  0  0
  8 10  1  0  0  0  0
 10 16  1  0  0  0  0
 10 11  1  0  0  0  0
 11 12  1  0  0  0  0
 11 44  1  0  0  0  0
 11 45  1  0  0  0  0
 12 14  1  0  0  0  0
 12 13  2  0  0  0  0
 14 15  1  0  0  0  0
 14 46  1  0  0  0  0
 15 16  1  0  0  0  0
 15 47  1  0  0  0  0
 15 48  1  0  0  0  0
 16 49  1  0  0  0  0
 16 50  1  0  0  0  0
 17 30  2  0  0  0  0
 17 18  1  0  0  0  0
 18 19  2  0  0  0  0
 18 29  1  0  0  0  0
 19 20  1  0  0  0  0
 19 24  1  0  0  0  0
 20 21  1  0  0  0  0
 21 51  1  0  0  0  0
 21 23  1  0  0  0  0
 21 22  1  0  0  0  0
 22 52  1  0  0  0  0
 22 53  1  0  0  0  0
 22 54  1  0  0  0  0
 23 55  1  0  0  0  0
 23 56  1  0  0  0  0
 23 57  1  0  0  0  0
 24 58  1  0  0  0  0
 24 25  2  0  0  0  0
 25 28  1  0  0  0  0
 25 26  1  0  0  0  0
 26 27  1  0  0  0  0
 27 59  1  0  0  0  0
 27 60  1  0  0  0  0
 27 61  1  0  0  0  0
 28 62  1  0  0  0  0
 28 29  2  0  0  0  0
 29 63  1  0  0  0  0
 31 30  1  0  0  0  0
 31 64  1  0  0  0  0
 31 32  1  0  0  0  0
 32 33  1  0  0  0  0
 32 38  2  0  0  0  0
 33 65  1  0  0  0  0
 33 34  2  0  0  0  0
 34 66  1  0  0  0  0
 34 35  1  0  0  0  0
 35 36  1  0  0  0  0
 35 37  2  0  0  0  0
 37 67  1  0  0  0  0
 37 38  1  0  0  0  0
 38 68  1  0  0  0  0
 39 69  1  0  0  0  0
 39 40  1  0  0  0  0
 40 70  1  0  0  0  0
M  ZZC   1 &Cl1
M  ZZC   2 c1
M  ZZC   3 c2
M  ZZC   4 c3
M  ZZC   5 c4
M  ZZC   6 c5
M  ZZC   7 n1
M  ZZC   8 c6
M  ZZC   9 o1
M  ZZC  10 n2
M  ZZC  11 c7
M  ZZC  12 c8
M  ZZC  13 o2
M  ZZC  14 n3
M  ZZC  15 c9
M  ZZC  16 c10
M  ZZC  17 c11
M  ZZC  18 c12
M  ZZC  19 c13
M  ZZC  20 o3
M  ZZC  21 c14
M  ZZC  22 c15
M  ZZC  23 c16
M  ZZC  24 c17
M  ZZC  25 c18
M  ZZC  26 o4
M  ZZC  27 c19
M  ZZC  28 c20
M  ZZC  29 c21
M  ZZC  30 n4
M  ZZC  31 c22
M  ZZC  32 c23
M  ZZC  33 c24
M  ZZC  34 c25
M  ZZC  35 c26
M  ZZC  36 &Cl2
M  ZZC  37 c27
M  ZZC  38 c28
M  ZZC  39 c29
M  ZZC  40 c30
M  ZZC  41 h21
M  ZZC  42 h31
M  ZZC  43 h51
M  ZZC  44 h71
M  ZZC  45 h72
M  ZZC  46 h01
M  ZZC  47 h91
M  ZZC  48 h92
M  ZZC  49 h101
M  ZZC  50 h102
M  ZZC  51 h141
M  ZZC  52 h151
M  ZZC  53 h152
M  ZZC  54 h153
M  ZZC  55 h161
M  ZZC  56 h162
M  ZZC  57 h163
M  ZZC  58 h171
M  ZZC  59 h191
M  ZZC  60 h192
M  ZZC  61 h193
M  ZZC  62 h201
M  ZZC  63 h211
M  ZZC  64 h221
M  ZZC  65 h241
M  ZZC  66 h251
M  ZZC  67 h271
M  ZZC  68 h281
M  ZZC  69 h291
M  ZZC  70 h301
M  ZZM   1 12
M  ZZI   1 92
M  ZZM   2 37
M  ZZI   2 124
M  ZZM   3 37
M  ZZI   3 125
M  ZZM   4 37
M  ZZI   4 125
M  ZZM   5 37
M  ZZI   5 124
M  ZZM   6 1
M  ZZI   6 113
M  ZZM   7 10
M  ZZI   7 192
M  ZZM   8 3
M  ZZI   8 121
M  ZZM   9 7
M  ZZI   9 81
M  ZZM  10 10
M  ZZI  10 192
M  ZZM  11 1
M  ZZI  11 112
M  ZZM  12 3
M  ZZI  12 121
M  ZZM  13 7
M  ZZI  13 81
M  ZZM  14 10
M  ZZI  14 211
M  ZZM  15 1
M  ZZI  15 112
M  ZZM  16 1
M  ZZI  16 112
M  ZZM  17 3
M  ZZI  17 121
M  ZZM  18 37
M  ZZI  18 124
M  ZZM  19 37
M  ZZI  19 124
M  ZZM  20 6
M  ZZI  20 59
M  ZZM  21 1
M  ZZI  21 113
M  ZZM  22 1
M  ZZI  22 111
M  ZZM  23 1
M  ZZI  23 111
M  ZZM  24 37
M  ZZI  24 125
M  ZZM  25 37
M  ZZI  25 124
M  ZZM  26 6
M  ZZI  26 59
M  ZZM  27 1
M  ZZI  27 111
M  ZZM  28 37
M  ZZI  28 125
M  ZZM  29 37
M  ZZI  29 125
M  ZZM  30 9
M  ZZI  30 220
M  ZZM  31 1
M  ZZI  31 113
M  ZZM  32 37
M  ZZI  32 124
M  ZZM  33 37
M  ZZI  33 125
M  ZZM  34 37
M  ZZI  34 125
M  ZZM  35 37
M  ZZI  35 124
M  ZZM  36 12
M  ZZI  36 92
M  ZZM  37 37
M  ZZI  37 125
M  ZZM  38 37
M  ZZI  38 125
M  ZZM  39 37
M  ZZI  39 125
M  ZZM  40 37
M  ZZI  40 125
M  ZZM  41 5
M  ZZI  41 1
M  ZZM  42 5
M  ZZI  42 1
M  ZZM  43 5
M  ZZI  43 1
M  ZZM  44 5
M  ZZI  44 1
M  ZZM  45 5
M  ZZI  45 1
M  ZZM  46 28
M  ZZI  46 11
M  ZZM  47 5
M  ZZI  47 1
M  ZZM  48 5
M  ZZI  48 1
M  ZZM  49 5
M  ZZI  49 1
M  ZZM  50 5
M  ZZI  50 1
M  ZZM  51 5
M  ZZI  51 1
M  ZZM  52 5
M  ZZI  52 1
M  ZZM  53 5
M  ZZI  53 1
M  ZZM  54 5
M  ZZI  54 1
M  ZZM  55 5
M  ZZI  55 1
M  ZZM  56 5
M  ZZI  56 1
M  ZZM  57 5
M  ZZI  57 1
M  ZZM  58 5
M  ZZI  58 1
M  ZZM  59 5
M  ZZI  59 1
M  ZZM  60 5
M  ZZI  60 1
M  ZZM  61 5
M  ZZI  61 1
M  ZZM  62 5
M  ZZI  62 1
M  ZZM  63 5
M  ZZI  63 1
M  ZZM  64 5
M  ZZI  64 1
M  ZZM  65 5
M  ZZI  65 1
M  ZZM  66 5
M  ZZI  66 1
M  ZZM  67 5
M  ZZI  67 1
M  ZZM  68 5
M  ZZI  68 1
M  ZZM  69 5
M  ZZI  69 1
M  ZZM  70 5
M  ZZI  70 1
M  END
> <IX>
1

> <NAME>
Mdm2_3K6P_23.pdb

> <Score>
-8.874847

> <Natom>
70

> <Nflex>
5

> <Hbond>
-3.306155

> <Hphob>
-5.448495

> <VwInt>
-23.246528

> <Dsolv>
12.899391

> <SolEl>
8.057151

> <Eintl>
13.990802

> <RecConf>
ND

> <projPath>
Mdm2_maps/

> <NAME_>
Mdm2_3K6P_23.pdb

$$$$
