Mdm2_2EUF_14.pdb
  MOLSOFT 04032206413D

 77 81  0  0  1  0  0  0  0  0999 V2000
   -2.3327   20.1173   42.8308 Cl  0  0  0  0  0  0  0  0  0  0  0  0
   -1.2274   19.4187   41.7027 C   0  0  0  0  0  0  0  0  0  0  0  0
   -1.3871   18.1020   41.3092 C   0  0  0  0  0  0  0  0  0  0  0  0
   -0.4937   17.5347   40.4171 C   0  0  0  0  0  0  0  0  0  0  0  0
    0.5638   18.2811   39.8966 C   0  0  0  0  0  0  0  0  0  0  0  0
    1.6025   17.6915   38.9567 C   0  0  2  0  0  0  0  0  0  0  0  0
    1.1890   16.6969   37.9874 N   0  0  0  0  0  0  0  0  0  0  0  0
   -0.0273   16.5650   37.3252 C   0  0  0  0  0  0  0  0  0  0  0  0
   -0.5083   15.4542   37.1599 O   0  0  0  0  0  0  0  0  0  0  0  0
   -0.7036   17.7055   36.8809 N   0  0  0  0  0  0  0  0  0  0  0  0
   -0.1652   19.0523   36.7115 C   0  0  0  0  0  0  0  0  0  0  0  0
   -0.0856   19.4741   35.2499 C   0  0  0  0  0  0  0  0  0  0  0  0
    0.5705   20.4645   34.9617 O   0  0  0  0  0  0  0  0  0  0  0  0
   -0.8267   18.7474   34.3144 N   0  0  0  0  0  0  0  0  0  0  0  0
   -0.7856   19.1384   32.9009 C   0  0  0  0  0  0  0  0  0  0  0  0
   -2.0061   19.9657   32.5219 C   0  0  0  0  0  0  0  0  0  0  0  0
   -2.7626   20.4775   33.3334 O   0  0  0  0  0  0  0  0  0  0  0  0
   -2.1665   20.1340   31.1715 N   0  0  0  0  0  0  0  0  0  0  0  0
   -1.6372   17.5816   34.6711 C   0  0  0  0  0  0  0  0  0  0  0  0
   -1.9471   17.5181   36.1582 C   0  0  0  0  0  0  0  0  0  0  0  0
    2.3077   15.9072   37.7543 C   0  0  0  0  0  0  0  0  0  0  0  0
    2.4042   14.9424   36.6063 C   0  0  0  0  0  0  0  0  0  0  0  0
    3.0940   13.7342   36.7539 C   0  0  0  0  0  0  0  0  0  0  0  0
    3.6337   13.3992   37.9992 O   0  0  0  0  0  0  0  0  0  0  0  0
    5.0099   12.9721   37.9180 C   0  0  0  0  0  0  0  0  0  0  0  0
    5.1301   11.5940   38.5524 C   0  0  0  0  0  0  0  0  0  0  0  0
    5.8674   13.9823   38.6649 C   0  0  0  0  0  0  0  0  0  0  0  0
    3.1653   12.8350   35.6933 C   0  0  0  0  0  0  0  0  0  0  0  0
    2.6131   13.1481   34.4658 C   0  0  0  0  0  0  0  0  0  0  0  0
    2.7503   12.1615   33.4799 O   0  0  0  0  0  0  0  0  0  0  0  0
    2.3014   12.5408   32.1740 C   0  0  0  0  0  0  0  0  0  0  0  0
    1.9793   14.3772   34.2925 C   0  0  0  0  0  0  0  0  0  0  0  0
    1.8815   15.2648   35.3525 C   0  0  0  0  0  0  0  0  0  0  0  0
    3.2915   16.0806   38.5836 N   0  0  0  0  0  0  0  0  0  0  0  0
    2.8004   17.0094   39.6212 C   0  0  2  0  0  0  0  0  0  0  0  0
    2.5606   16.3061   40.9510 C   0  0  0  0  0  0  0  0  0  0  0  0
    2.6200   17.0249   42.1442 C   0  0  0  0  0  0  0  0  0  0  0  0
    2.4405   16.4077   43.3685 C   0  0  0  0  0  0  0  0  0  0  0  0
    2.2001   15.0487   43.4225 C   0  0  0  0  0  0  0  0  0  0  0  0
    2.0027   14.2693   44.9512 Cl  0  0  0  0  0  0  0  0  0  0  0  0
    2.1242   14.3122   42.2555 C   0  0  0  0  0  0  0  0  0  0  0  0
    2.2979   14.9374   41.0328 C   0  0  0  0  0  0  0  0  0  0  0  0
    0.6970   19.6116   40.2970 C   0  0  0  0  0  0  0  0  0  0  0  0
   -0.1861   20.1770   41.1991 C   0  0  0  0  0  0  0  0  0  0  0  0
   -2.2019   17.5037   41.7053 H   0  0  0  0  0  0  0  0  0  0  0  0
   -0.6222   16.4910   40.1447 H   0  0  0  0  0  0  0  0  0  0  0  0
    2.0283   18.5080   38.3654 H   0  0  0  0  0  0  0  0  0  0  0  0
   -0.8181   19.7522   37.2428 H   0  0  0  0  0  0  0  0  0  0  0  0
    0.8362   19.1481   37.1085 H   0  0  0  0  0  0  0  0  0  0  0  0
    0.1032   19.7459   32.7026 H   0  0  0  0  0  0  0  0  0  0  0  0
   -0.7311   18.2353   32.2832 H   0  0  0  0  0  0  0  0  0  0  0  0
   -2.9444   20.6891   30.8332 H   0  0  0  0  0  0  0  0  0  0  0  0
   -1.5368   19.7415   30.4803 H   0  0  0  0  0  0  0  0  0  0  0  0
   -2.5708   17.6055   34.1002 H   0  0  0  0  0  0  0  0  0  0  0  0
   -1.0741   16.6959   34.3569 H   0  0  0  0  0  0  0  0  0  0  0  0
   -2.4220   16.5655   36.4118 H   0  0  0  0  0  0  0  0  0  0  0  0
   -2.6356   18.3195   36.4490 H   0  0  0  0  0  0  0  0  0  0  0  0
    5.3657   12.9200   36.8858 H   0  0  0  0  0  0  0  0  0  0  0  0
    6.1683   11.2470   38.5459 H   0  0  0  0  0  0  0  0  0  0  0  0
    4.5120   10.8590   38.0274 H   0  0  0  0  0  0  0  0  0  0  0  0
    4.8160   11.6232   39.5998 H   0  0  0  0  0  0  0  0  0  0  0  0
    5.8276   14.9602   38.1766 H   0  0  0  0  0  0  0  0  0  0  0  0
    6.9110   13.6626   38.7036 H   0  0  0  0  0  0  0  0  0  0  0  0
    5.5096   14.1242   39.6888 H   0  0  0  0  0  0  0  0  0  0  0  0
    3.6433   11.8689   35.8165 H   0  0  0  0  0  0  0  0  0  0  0  0
    1.2207   12.7162   32.1636 H   0  0  0  0  0  0  0  0  0  0  0  0
    2.5114   11.7105   31.4947 H   0  0  0  0  0  0  0  0  0  0  0  0
    2.8513   13.4120   31.8077 H   0  0  0  0  0  0  0  0  0  0  0  0
    1.5494   14.6690   33.3415 H   0  0  0  0  0  0  0  0  0  0  0  0
    1.4020   16.2207   35.1733 H   0  0  0  0  0  0  0  0  0  0  0  0
    3.5699   17.7661   39.7890 H   0  0  0  0  0  0  0  0  0  0  0  0
    2.8120   18.0904   42.1335 H   0  0  0  0  0  0  0  0  0  0  0  0
    2.5039   16.9952   44.2793 H   0  0  0  0  0  0  0  0  0  0  0  0
    1.9350   13.2438   42.2888 H   0  0  0  0  0  0  0  0  0  0  0  0
    2.2392   14.3304   40.1356 H   0  0  0  0  0  0  0  0  0  0  0  0
    1.5090   20.2233   39.9133 H   0  0  0  0  0  0  0  0  0  0  0  0
   -0.0530   21.2091   41.5094 H   0  0  0  0  0  0  0  0  0  0  0  0
  2  1  1  0  0  0  0
  2  3  1  0  0  0  0
  2 44  2  0  0  0  0
  3 45  1  0  0  0  0
  3  4  2  0  0  0  0
  4 46  1  0  0  0  0
  4  5  1  0  0  0  0
  5 43  2  0  0  0  0
  6  5  1  0  0  0  0
  6 47  1  0  0  0  0
  6 35  1  0  0  0  0
  6  7  1  0  0  0  0
  7 21  1  0  0  0  0
  7  8  1  0  0  0  0
  8  9  2  0  0  0  0
  8 10  1  0  0  0  0
 10 20  1  0  0  0  0
 10 11  1  0  0  0  0
 11 12  1  0  0  0  0
 11 48  1  0  0  0  0
 11 49  1  0  0  0  0
 12 14  1  0  0  0  0
 12 13  2  0  0  0  0
 14 19  1  0  0  0  0
 14 15  1  0  0  0  0
 15 50  1  0  0  0  0
 15 51  1  0  0  0  0
 15 16  1  0  0  0  0
 16 17  2  0  0  0  0
 16 18  1  0  0  0  0
 18 52  1  0  0  0  0
 18 53  1  0  0  0  0
 19 20  1  0  0  0  0
 19 54  1  0  0  0  0
 19 55  1  0  0  0  0
 20 56  1  0  0  0  0
 20 57  1  0  0  0  0
 21 34  2  0  0  0  0
 21 22  1  0  0  0  0
 22 23  2  0  0  0  0
 22 33  1  0  0  0  0
 23 24  1  0  0  0  0
 23 28  1  0  0  0  0
 24 25  1  0  0  0  0
 25 58  1  0  0  0  0
 25 27  1  0  0  0  0
 25 26  1  0  0  0  0
 26 59  1  0  0  0  0
 26 60  1  0  0  0  0
 26 61  1  0  0  0  0
 27 62  1  0  0  0  0
 27 63  1  0  0  0  0
 27 64  1  0  0  0  0
 28 65  1  0  0  0  0
 28 29  2  0  0  0  0
 29 32  1  0  0  0  0
 29 30  1  0  0  0  0
 30 31  1  0  0  0  0
 31 66  1  0  0  0  0
 31 67  1  0  0  0  0
 31 68  1  0  0  0  0
 32 69  1  0  0  0  0
 32 33  2  0  0  0  0
 33 70  1  0  0  0  0
 35 34  1  0  0  0  0
 35 71  1  0  0  0  0
 35 36  1  0  0  0  0
 36 37  1  0  0  0  0
 36 42  2  0  0  0  0
 37 72  1  0  0  0  0
 37 38  2  0  0  0  0
 38 73  1  0  0  0  0
 38 39  1  0  0  0  0
 39 40  1  0  0  0  0
 39 41  2  0  0  0  0
 41 74  1  0  0  0  0
 41 42  1  0  0  0  0
 42 75  1  0  0  0  0
 43 76  1  0  0  0  0
 43 44  1  0  0  0  0
 44 77  1  0  0  0  0
M  ZZC   1 &Cl1
M  ZZC   2 c1
M  ZZC   3 c2
M  ZZC   4 c3
M  ZZC   5 c4
M  ZZC   6 c5
M  ZZC   7 n1
M  ZZC   8 c6
M  ZZC   9 o1
M  ZZC  10 n2
M  ZZC  11 c7
M  ZZC  12 c8
M  ZZC  13 o2
M  ZZC  14 n3
M  ZZC  15 c9
M  ZZC  16 c10
M  ZZC  17 o3
M  ZZC  18 n4
M  ZZC  19 c11
M  ZZC  20 c12
M  ZZC  21 c13
M  ZZC  22 c14
M  ZZC  23 c15
M  ZZC  24 o4
M  ZZC  25 c16
M  ZZC  26 c17
M  ZZC  27 c18
M  ZZC  28 c19
M  ZZC  29 c20
M  ZZC  30 o5
M  ZZC  31 c21
M  ZZC  32 c22
M  ZZC  33 c23
M  ZZC  34 n5
M  ZZC  35 c24
M  ZZC  36 c25
M  ZZC  37 c26
M  ZZC  38 c27
M  ZZC  39 c28
M  ZZC  40 &Cl2
M  ZZC  41 c29
M  ZZC  42 c30
M  ZZC  43 c31
M  ZZC  44 c32
M  ZZC  45 h21
M  ZZC  46 h31
M  ZZC  47 h51
M  ZZC  48 h71
M  ZZC  49 h72
M  ZZC  50 h91
M  ZZC  51 h92
M  ZZC  52 h41
M  ZZC  53 h42
M  ZZC  54 h111
M  ZZC  55 h112
M  ZZC  56 h121
M  ZZC  57 h122
M  ZZC  58 h161
M  ZZC  59 h171
M  ZZC  60 h172
M  ZZC  61 h173
M  ZZC  62 h181
M  ZZC  63 h182
M  ZZC  64 h183
M  ZZC  65 h191
M  ZZC  66 h211
M  ZZC  67 h212
M  ZZC  68 h213
M  ZZC  69 h221
M  ZZC  70 h231
M  ZZC  71 h241
M  ZZC  72 h261
M  ZZC  73 h271
M  ZZC  74 h291
M  ZZC  75 h301
M  ZZC  76 h311
M  ZZC  77 h321
M  ZZM   1 12
M  ZZI   1 92
M  ZZM   2 37
M  ZZI   2 124
M  ZZM   3 37
M  ZZI   3 125
M  ZZM   4 37
M  ZZI   4 125
M  ZZM   5 37
M  ZZI   5 124
M  ZZM   6 1
M  ZZI   6 113
M  ZZM   7 10
M  ZZI   7 192
M  ZZM   8 3
M  ZZI   8 121
M  ZZM   9 7
M  ZZI   9 81
M  ZZM  10 10
M  ZZI  10 192
M  ZZM  11 1
M  ZZI  11 112
M  ZZM  12 3
M  ZZI  12 121
M  ZZM  13 7
M  ZZI  13 81
M  ZZM  14 10
M  ZZI  14 192
M  ZZM  15 1
M  ZZI  15 112
M  ZZM  16 3
M  ZZI  16 121
M  ZZM  17 7
M  ZZI  17 81
M  ZZM  18 10
M  ZZI  18 212
M  ZZM  19 1
M  ZZI  19 112
M  ZZM  20 1
M  ZZI  20 112
M  ZZM  21 3
M  ZZI  21 121
M  ZZM  22 37
M  ZZI  22 124
M  ZZM  23 37
M  ZZI  23 124
M  ZZM  24 6
M  ZZI  24 59
M  ZZM  25 1
M  ZZI  25 113
M  ZZM  26 1
M  ZZI  26 111
M  ZZM  27 1
M  ZZI  27 111
M  ZZM  28 37
M  ZZI  28 125
M  ZZM  29 37
M  ZZI  29 124
M  ZZM  30 6
M  ZZI  30 59
M  ZZM  31 1
M  ZZI  31 111
M  ZZM  32 37
M  ZZI  32 125
M  ZZM  33 37
M  ZZI  33 125
M  ZZM  34 9
M  ZZI  34 220
M  ZZM  35 1
M  ZZI  35 113
M  ZZM  36 37
M  ZZI  36 124
M  ZZM  37 37
M  ZZI  37 125
M  ZZM  38 37
M  ZZI  38 125
M  ZZM  39 37
M  ZZI  39 124
M  ZZM  40 12
M  ZZI  40 92
M  ZZM  41 37
M  ZZI  41 125
M  ZZM  42 37
M  ZZI  42 125
M  ZZM  43 37
M  ZZI  43 125
M  ZZM  44 37
M  ZZI  44 125
M  ZZM  45 5
M  ZZI  45 1
M  ZZM  46 5
M  ZZI  46 1
M  ZZM  47 5
M  ZZI  47 1
M  ZZM  48 5
M  ZZI  48 1
M  ZZM  49 5
M  ZZI  49 1
M  ZZM  50 5
M  ZZI  50 1
M  ZZM  51 5
M  ZZI  51 1
M  ZZM  52 28
M  ZZI  52 11
M  ZZM  53 28
M  ZZI  53 11
M  ZZM  54 5
M  ZZI  54 1
M  ZZM  55 5
M  ZZI  55 1
M  ZZM  56 5
M  ZZI  56 1
M  ZZM  57 5
M  ZZI  57 1
M  ZZM  58 5
M  ZZI  58 1
M  ZZM  59 5
M  ZZI  59 1
M  ZZM  60 5
M  ZZI  60 1
M  ZZM  61 5
M  ZZI  61 1
M  ZZM  62 5
M  ZZI  62 1
M  ZZM  63 5
M  ZZI  63 1
M  ZZM  64 5
M  ZZI  64 1
M  ZZM  65 5
M  ZZI  65 1
M  ZZM  66 5
M  ZZI  66 1
M  ZZM  67 5
M  ZZI  67 1
M  ZZM  68 5
M  ZZI  68 1
M  ZZM  69 5
M  ZZI  69 1
M  ZZM  70 5
M  ZZI  70 1
M  ZZM  71 5
M  ZZI  71 1
M  ZZM  72 5
M  ZZI  72 1
M  ZZM  73 5
M  ZZI  73 1
M  ZZM  74 5
M  ZZI  74 1
M  ZZM  75 5
M  ZZI  75 1
M  ZZM  76 5
M  ZZI  76 1
M  ZZM  77 5
M  ZZI  77 1
M  END
> <IX>
1

> <NAME>
Mdm2_2EUF_14.pdb

> <Score>
-14.396376

> <Natom>
77

> <Nflex>
7

> <Hbond>
-3.427078

> <Hphob>
-5.830504

> <VwInt>
-31.762525

> <Dsolv>
15.232029

> <SolEl>
8.059752

> <Eintl>
14.999393

> <RecConf>
ND

> <projPath>
Mdm2_maps/

> <NAME_>
Mdm2_2EUF_14.pdb

$$$$
