RNF4_3MXF_42.pdb
  MOLSOFT 04032206333D

 47 49  0  0  0  0  0  0  0  0999 V2000
   -1.1527   37.1532    4.1000 Cl  0  0  0  0  0  0  0  0  0  0  0  0
   -1.0054   37.2363    2.3248 C   0  0  0  0  0  0  0  0  0  0  0  0
   -0.2521   36.0222    1.7878 C   0  0  0  0  0  0  0  0  0  0  0  0
    0.4312   35.3481    2.5465 O   0  0  0  0  0  0  0  0  0  0  0  0
   -0.3978   35.7681    0.4087 N   0  0  0  0  0  0  0  0  0  0  0  0
   -0.7986   36.8699   -0.4939 C   0  0  0  0  0  0  0  0  0  0  0  0
   -2.2598   36.9463   -0.8948 C   0  0  0  0  0  0  0  0  0  0  0  0
   -3.1791   35.9177   -0.6827 C   0  0  0  0  0  0  0  0  0  0  0  0
   -4.4907   36.0366   -1.1081 C   0  0  0  0  0  0  0  0  0  0  0  0
   -4.9185   37.1879   -1.7390 C   0  0  0  0  0  0  0  0  0  0  0  0
   -4.0251   38.2188   -1.9549 C   0  0  0  0  0  0  0  0  0  0  0  0
   -2.7101   38.0955   -1.5428 C   0  0  0  0  0  0  0  0  0  0  0  0
   -0.1138   34.4674   -0.1698 C   0  0  0  0  0  0  0  0  0  0  0  0
    0.2191   33.3493    0.6055 C   0  0  0  0  0  0  0  0  0  0  0  0
    0.3640   32.0872    0.0486 C   0  0  0  0  0  0  0  0  0  0  0  0
    0.1791   31.8892   -1.3021 C   0  0  0  0  0  0  0  0  0  0  0  0
    0.2988   30.2687   -1.9459 O   0  0  0  0  0  0  0  0  0  0  0  0
   -0.2376   29.7444   -3.5234 C   0  0  0  0  0  0  0  0  0  0  0  0
   -1.1188   30.5020   -4.2760 C   0  0  0  0  0  0  0  0  0  0  0  0
   -1.4696   30.1084   -5.5546 C   0  0  0  0  0  0  0  0  0  0  0  0
   -0.9440   28.9332   -6.0883 C   0  0  0  0  0  0  0  0  0  0  0  0
   -1.1779   28.4799   -7.3948 O   0  0  0  0  0  0  0  0  0  0  0  0
   -2.0021   29.3416   -8.1939 C   0  0  0  0  0  0  0  0  0  0  0  0
   -0.1188   28.1391   -5.3048 C   0  0  0  0  0  0  0  0  0  0  0  0
    0.2265   28.5396   -4.0231 C   0  0  0  0  0  0  0  0  0  0  0  0
   -0.0751   32.9850   -2.1019 C   0  0  0  0  0  0  0  0  0  0  0  0
   -0.2257   34.2442   -1.5478 C   0  0  0  0  0  0  0  0  0  0  0  0
   -2.0215   37.2739    1.9247 H   0  0  0  0  0  0  0  0  0  0  0  0
   -0.4703   38.1581    2.0838 H   0  0  0  0  0  0  0  0  0  0  0  0
   -0.5429   37.8153   -0.0094 H   0  0  0  0  0  0  0  0  0  0  0  0
   -0.1634   36.8577   -1.3845 H   0  0  0  0  0  0  0  0  0  0  0  0
   -2.8881   34.9985   -0.1861 H   0  0  0  0  0  0  0  0  0  0  0  0
   -5.1891   35.2224   -0.9432 H   0  0  0  0  0  0  0  0  0  0  0  0
   -5.9513   37.2831   -2.0595 H   0  0  0  0  0  0  0  0  0  0  0  0
   -4.3569   39.1277   -2.4484 H   0  0  0  0  0  0  0  0  0  0  0  0
   -2.0284   38.9197   -1.7326 H   0  0  0  0  0  0  0  0  0  0  0  0
    0.3486   33.4168    1.6755 H   0  0  0  0  0  0  0  0  0  0  0  0
    0.5959   31.2374    0.6801 H   0  0  0  0  0  0  0  0  0  0  0  0
   -1.5535   31.4049   -3.8684 H   0  0  0  0  0  0  0  0  0  0  0  0
   -2.1459   30.7435   -6.1144 H   0  0  0  0  0  0  0  0  0  0  0  0
   -2.1005   28.9586   -9.2153 H   0  0  0  0  0  0  0  0  0  0  0  0
   -1.5077   30.3149   -8.2539 H   0  0  0  0  0  0  0  0  0  0  0  0
   -2.9806   29.4962   -7.7272 H   0  0  0  0  0  0  0  0  0  0  0  0
    0.2737   27.2078   -5.7019 H   0  0  0  0  0  0  0  0  0  0  0  0
    0.8869   27.9253   -3.4216 H   0  0  0  0  0  0  0  0  0  0  0  0
   -0.1521   32.8741   -3.1754 H   0  0  0  0  0  0  0  0  0  0  0  0
   -0.4612   35.0419   -2.2405 H   0  0  0  0  0  0  0  0  0  0  0  0
  2  1  1  0  0  0  0
  2 28  1  0  0  0  0
  2 29  1  0  0  0  0
  2  3  1  0  0  0  0
  3  4  2  0  0  0  0
  3  5  1  0  0  0  0
  5  6  1  0  0  0  0
  5 13  1  0  0  0  0
  6 30  1  0  0  0  0
  6 31  1  0  0  0  0
  6  7  1  0  0  0  0
  7  8  1  0  0  0  0
  7 12  2  0  0  0  0
  8 32  1  0  0  0  0
  8  9  2  0  0  0  0
  9 33  1  0  0  0  0
  9 10  1  0  0  0  0
 10 34  1  0  0  0  0
 10 11  2  0  0  0  0
 11 35  1  0  0  0  0
 11 12  1  0  0  0  0
 12 36  1  0  0  0  0
 13 14  1  0  0  0  0
 13 27  2  0  0  0  0
 14 37  1  0  0  0  0
 14 15  2  0  0  0  0
 15 38  1  0  0  0  0
 15 16  1  0  0  0  0
 16 26  2  0  0  0  0
 16 17  1  0  0  0  0
 17 18  1  0  0  0  0
 18 19  1  0  0  0  0
 18 25  2  0  0  0  0
 19 39  1  0  0  0  0
 19 20  2  0  0  0  0
 20 40  1  0  0  0  0
 20 21  1  0  0  0  0
 21 24  2  0  0  0  0
 21 22  1  0  0  0  0
 22 23  1  0  0  0  0
 23 41  1  0  0  0  0
 23 42  1  0  0  0  0
 23 43  1  0  0  0  0
 24 44  1  0  0  0  0
 24 25  1  0  0  0  0
 25 45  1  0  0  0  0
 26 46  1  0  0  0  0
 26 27  1  0  0  0  0
 27 47  1  0  0  0  0
M  ZZC   1 &Cl1
M  ZZC   2 c1
M  ZZC   3 c2
M  ZZC   4 o1
M  ZZC   5 n1
M  ZZC   6 c3
M  ZZC   7 c4
M  ZZC   8 c5
M  ZZC   9 c6
M  ZZC  10 c7
M  ZZC  11 c8
M  ZZC  12 c9
M  ZZC  13 c10
M  ZZC  14 c11
M  ZZC  15 c12
M  ZZC  16 c13
M  ZZC  17 o2
M  ZZC  18 c14
M  ZZC  19 c15
M  ZZC  20 c16
M  ZZC  21 c17
M  ZZC  22 o3
M  ZZC  23 c18
M  ZZC  24 c19
M  ZZC  25 c20
M  ZZC  26 c21
M  ZZC  27 c22
M  ZZC  28 h11
M  ZZC  29 h12
M  ZZC  30 h31
M  ZZC  31 h32
M  ZZC  32 h51
M  ZZC  33 h61
M  ZZC  34 h71
M  ZZC  35 h81
M  ZZC  36 h91
M  ZZC  37 h111
M  ZZC  38 h121
M  ZZC  39 h151
M  ZZC  40 h161
M  ZZC  41 h181
M  ZZC  42 h182
M  ZZC  43 h183
M  ZZC  44 h191
M  ZZC  45 h201
M  ZZC  46 h211
M  ZZC  47 h221
M  ZZM   1 12
M  ZZI   1 92
M  ZZM   2 1
M  ZZI   2 112
M  ZZM   3 3
M  ZZI   3 121
M  ZZM   4 7
M  ZZI   4 81
M  ZZM   5 10
M  ZZI   5 192
M  ZZM   6 1
M  ZZI   6 112
M  ZZM   7 37
M  ZZI   7 124
M  ZZM   8 37
M  ZZI   8 125
M  ZZM   9 37
M  ZZI   9 125
M  ZZM  10 37
M  ZZI  10 125
M  ZZM  11 37
M  ZZI  11 125
M  ZZM  12 37
M  ZZI  12 125
M  ZZM  13 37
M  ZZI  13 124
M  ZZM  14 37
M  ZZI  14 125
M  ZZM  15 37
M  ZZI  15 125
M  ZZM  16 37
M  ZZI  16 124
M  ZZM  17 0
M  ZZI  17 67
M  ZZM  18 37
M  ZZI  18 124
M  ZZM  19 37
M  ZZI  19 125
M  ZZM  20 37
M  ZZI  20 125
M  ZZM  21 37
M  ZZI  21 124
M  ZZM  22 6
M  ZZI  22 59
M  ZZM  23 1
M  ZZI  23 111
M  ZZM  24 37
M  ZZI  24 125
M  ZZM  25 37
M  ZZI  25 125
M  ZZM  26 37
M  ZZI  26 125
M  ZZM  27 37
M  ZZI  27 125
M  ZZM  28 5
M  ZZI  28 1
M  ZZM  29 5
M  ZZI  29 1
M  ZZM  30 5
M  ZZI  30 1
M  ZZM  31 5
M  ZZI  31 1
M  ZZM  32 5
M  ZZI  32 1
M  ZZM  33 5
M  ZZI  33 1
M  ZZM  34 5
M  ZZI  34 1
M  ZZM  35 5
M  ZZI  35 1
M  ZZM  36 5
M  ZZI  36 1
M  ZZM  37 5
M  ZZI  37 1
M  ZZM  38 5
M  ZZI  38 1
M  ZZM  39 5
M  ZZI  39 1
M  ZZM  40 5
M  ZZI  40 1
M  ZZM  41 5
M  ZZI  41 1
M  ZZM  42 5
M  ZZI  42 1
M  ZZM  43 5
M  ZZI  43 1
M  ZZM  44 5
M  ZZI  44 1
M  ZZM  45 5
M  ZZI  45 1
M  ZZM  46 5
M  ZZI  46 1
M  ZZM  47 5
M  ZZI  47 1
M  END
> <IX>
1

> <NAME>
RNF4_3MXF_42.pdb

> <Score>
-17.755434

> <Natom>
47

> <Nflex>
6

> <Hbond>
-3.769639

> <Hphob>
-5.950126

> <VwInt>
-24.209789

> <Dsolv>
12.495711

> <SolEl>
7.289779

> <Eintl>
3.658479

> <RecConf>
ND

> <projPath>
RNF4_maps/

> <NAME_>
RNF4_3MXF_42.pdb

$$$$
