VHL_3UE4_5.pdb
  MOLSOFT 04032206373D

 65 67  0  0  1  0  0  0  0  0999 V2000
   18.0525   -7.0316   -5.1076 C   0  0  0  0  0  0  0  0  0  0  0  0
   16.9099   -6.0567   -5.0624 C   0  0  0  0  0  0  0  0  0  0  0  0
   15.8366   -6.3258   -5.5736 O   0  0  0  0  0  0  0  0  0  0  0  0
   17.1971   -4.8994   -4.3675 N   0  0  0  0  0  0  0  0  0  0  0  0
   16.2608   -3.7788   -4.1986 C   0  0  1  0  0  0  0  0  0  0  0  0
   15.8508   -3.5600   -2.7106 C   0  0  0  0  0  0  0  0  0  0  0  0
   15.3233   -4.8839   -2.1429 C   0  0  0  0  0  0  0  0  0  0  0  0
   17.0230   -3.0765   -1.8442 C   0  0  0  0  0  0  0  0  0  0  0  0
   14.7183   -2.5319   -2.5748 C   0  0  0  0  0  0  0  0  0  0  0  0
   16.9625   -2.5787   -4.8579 C   0  0  0  0  0  0  0  0  0  0  0  0
   18.1664   -2.4025   -4.7291 O   0  0  0  0  0  0  0  0  0  0  0  0
   16.1936   -1.6731   -5.5855 N   0  0  0  0  0  0  0  0  0  0  0  0
   16.8344   -0.5863   -6.3136 C   0  0  2  0  0  0  0  0  0  0  0  0
   17.3716    0.5048   -5.3898 C   0  0  0  0  0  0  0  0  0  0  0  0
   16.9267    0.7067   -4.2677 O   0  0  0  0  0  0  0  0  0  0  0  0
   18.3322    1.2942   -5.9987 N   0  0  0  0  0  0  0  0  0  0  0  0
   18.6931    2.5984   -5.4784 C   0  0  0  0  0  0  0  0  0  0  0  0
   17.6895    3.6043   -5.9758 C   0  0  0  0  0  0  0  0  0  0  0  0
   17.9242    4.3522   -7.1266 C   0  0  0  0  0  0  0  0  0  0  0  0
   16.8991    5.0797   -7.7099 C   0  0  0  0  0  0  0  0  0  0  0  0
   15.6206    5.0364   -7.1668 C   0  0  0  0  0  0  0  0  0  0  0  0
   14.4797    5.5928   -7.8608 C   0  0  0  0  0  0  0  0  0  0  0  0
   13.4461    4.9339   -8.5109 C   0  0  0  0  0  0  0  0  0  0  0  0
   13.3218    3.4732   -8.7359 C   0  0  0  0  0  0  0  0  0  0  0  0
   12.4346    5.7529   -8.9583 N   0  0  0  0  0  0  0  0  0  0  0  0
   12.7469    7.0039   -8.7005 C   0  0  0  0  0  0  0  0  0  0  0  0
   14.2297    7.2864   -7.9107 S   0  0  0  0  0  0  0  0  0  0  0  0
   15.4115    4.3747   -5.9673 C   0  0  0  0  0  0  0  0  0  0  0  0
   16.4412    3.6844   -5.3674 C   0  0  0  0  0  0  0  0  0  0  0  0
   15.7468   -0.0343   -7.2348 C   0  0  0  0  0  0  0  0  0  0  0  0
   14.4658   -0.3897   -6.5027 C   0  0  1  0  0  0  0  0  0  0  0  0
   13.3523   -0.4393   -7.3905 O   0  0  0  0  0  0  0  0  0  0  0  0
   14.7976   -1.7594   -5.9452 C   0  0  0  0  0  0  0  0  0  0  0  0
   19.0088   -6.5095   -5.2093 H   0  0  0  0  0  0  0  0  0  0  0  0
   17.9288   -7.6968   -5.9671 H   0  0  0  0  0  0  0  0  0  0  0  0
   18.0481   -7.6252   -4.1907 H   0  0  0  0  0  0  0  0  0  0  0  0
   18.1490   -4.7681   -4.0425 H   0  0  0  0  0  0  0  0  0  0  0  0
   15.3616   -4.0187   -4.7598 H   0  0  0  0  0  0  0  0  0  0  0  0
   14.9917   -4.7655   -1.1083 H   0  0  0  0  0  0  0  0  0  0  0  0
   16.0877   -5.6633   -2.1527 H   0  0  0  0  0  0  0  0  0  0  0  0
   14.4712   -5.2571   -2.7197 H   0  0  0  0  0  0  0  0  0  0  0  0
   16.7369   -3.0045   -0.7899 H   0  0  0  0  0  0  0  0  0  0  0  0
   17.3748   -2.0860   -2.1487 H   0  0  0  0  0  0  0  0  0  0  0  0
   17.8709   -3.7571   -1.8976 H   0  0  0  0  0  0  0  0  0  0  0  0
   15.0129   -1.5462   -2.9462 H   0  0  0  0  0  0  0  0  0  0  0  0
   14.4227   -2.3989   -1.5289 H   0  0  0  0  0  0  0  0  0  0  0  0
   13.8230   -2.8505   -3.1170 H   0  0  0  0  0  0  0  0  0  0  0  0
   17.6631   -0.9886   -6.8932 H   0  0  0  0  0  0  0  0  0  0  0  0
   18.6954    1.0231   -6.9079 H   0  0  0  0  0  0  0  0  0  0  0  0
   18.7118    2.5735   -4.3832 H   0  0  0  0  0  0  0  0  0  0  0  0
   19.7029    2.8361   -5.8288 H   0  0  0  0  0  0  0  0  0  0  0  0
   18.8965    4.3281   -7.6100 H   0  0  0  0  0  0  0  0  0  0  0  0
   17.0898    5.6343   -8.6244 H   0  0  0  0  0  0  0  0  0  0  0  0
   12.4256    3.2473   -9.3206 H   0  0  0  0  0  0  0  0  0  0  0  0
   13.2387    2.9317   -7.7897 H   0  0  0  0  0  0  0  0  0  0  0  0
   14.1902    3.0810   -9.2719 H   0  0  0  0  0  0  0  0  0  0  0  0
   12.1061    7.8270   -8.9617 H   0  0  0  0  0  0  0  0  0  0  0  0
   14.4249    4.3555   -5.5117 H   0  0  0  0  0  0  0  0  0  0  0  0
   16.2355    3.1375   -4.4521 H   0  0  0  0  0  0  0  0  0  0  0  0
   15.8229    1.0402   -7.4316 H   0  0  0  0  0  0  0  0  0  0  0  0
   15.7759   -0.5357   -8.2098 H   0  0  0  0  0  0  0  0  0  0  0  0
   14.2655    0.3352   -5.7044 H   0  0  0  0  0  0  0  0  0  0  0  0
   12.5421   -0.3582   -6.8569 H   0  0  0  0  0  0  0  0  0  0  0  0
   14.7166   -2.5217   -6.7239 H   0  0  0  0  0  0  0  0  0  0  0  0
   14.1530   -2.0505   -5.1170 H   0  0  0  0  0  0  0  0  0  0  0  0
  1 34  1  0  0  0  0
  1 35  1  0  0  0  0
  1 36  1  0  0  0  0
  1  2  1  0  0  0  0
  2  3  2  0  0  0  0
  2  4  1  0  0  0  0
  4 37  1  0  0  0  0
  5  4  1  0  0  0  0
  5 38  1  0  0  0  0
  5  6  1  0  0  0  0
  5 10  1  0  0  0  0
  6  7  1  0  0  0  0
  6  8  1  0  0  0  0
  6  9  1  0  0  0  0
  7 39  1  0  0  0  0
  7 40  1  0  0  0  0
  7 41  1  0  0  0  0
  8 42  1  0  0  0  0
  8 43  1  0  0  0  0
  8 44  1  0  0  0  0
  9 45  1  0  0  0  0
  9 46  1  0  0  0  0
  9 47  1  0  0  0  0
 10 11  2  0  0  0  0
 10 12  1  0  0  0  0
 12 33  1  0  0  0  0
 13 12  1  0  0  0  0
 13 30  1  0  0  0  0
 13 48  1  0  0  0  0
 13 14  1  0  0  0  0
 14 15  2  0  0  0  0
 14 16  1  0  0  0  0
 16 49  1  0  0  0  0
 16 17  1  0  0  0  0
 17 50  1  0  0  0  0
 17 51  1  0  0  0  0
 17 18  1  0  0  0  0
 18 19  1  0  0  0  0
 18 29  2  0  0  0  0
 19 52  1  0  0  0  0
 19 20  2  0  0  0  0
 20 53  1  0  0  0  0
 20 21  1  0  0  0  0
 21 28  2  0  0  0  0
 21 22  1  0  0  0  0
 22 23  2  0  0  0  0
 22 27  1  0  0  0  0
 23 24  1  0  0  0  0
 23 25  1  0  0  0  0
 24 54  1  0  0  0  0
 24 55  1  0  0  0  0
 24 56  1  0  0  0  0
 25 26  2  0  0  0  0
 26 57  1  0  0  0  0
 26 27  1  0  0  0  0
 28 58  1  0  0  0  0
 28 29  1  0  0  0  0
 29 59  1  0  0  0  0
 31 30  1  0  0  0  0
 30 60  1  0  0  0  0
 30 61  1  0  0  0  0
 31 33  1  0  0  0  0
 31 62  1  0  0  0  0
 31 32  1  0  0  0  0
 32 63  1  0  0  0  0
 33 64  1  0  0  0  0
 33 65  1  0  0  0  0
M  ZZC   1 c1
M  ZZC   2 c2
M  ZZC   3 o1
M  ZZC   4 n1
M  ZZC   5 c3
M  ZZC   6 c4
M  ZZC   7 c5
M  ZZC   8 c6
M  ZZC   9 c7
M  ZZC  10 c8
M  ZZC  11 o2
M  ZZC  12 n2
M  ZZC  13 c9
M  ZZC  14 c10
M  ZZC  15 o3
M  ZZC  16 n3
M  ZZC  17 c11
M  ZZC  18 c12
M  ZZC  19 c13
M  ZZC  20 c14
M  ZZC  21 c15
M  ZZC  22 c16
M  ZZC  23 c17
M  ZZC  24 c18
M  ZZC  25 n4
M  ZZC  26 c19
M  ZZC  27 s1
M  ZZC  28 c20
M  ZZC  29 c21
M  ZZC  30 c22
M  ZZC  31 c23
M  ZZC  32 o4
M  ZZC  33 c24
M  ZZC  34 h11
M  ZZC  35 h12
M  ZZC  36 h13
M  ZZC  37 h01
M  ZZC  38 h31
M  ZZC  39 h51
M  ZZC  40 h52
M  ZZC  41 h53
M  ZZC  42 h61
M  ZZC  43 h62
M  ZZC  44 h63
M  ZZC  45 h71
M  ZZC  46 h72
M  ZZC  47 h73
M  ZZC  48 h91
M  ZZC  49 h02
M  ZZC  50 h111
M  ZZC  51 h112
M  ZZC  52 h131
M  ZZC  53 h141
M  ZZC  54 h181
M  ZZC  55 h182
M  ZZC  56 h183
M  ZZC  57 h191
M  ZZC  58 h201
M  ZZC  59 h211
M  ZZC  60 h221
M  ZZC  61 h222
M  ZZC  62 h231
M  ZZC  63 h41
M  ZZC  64 h241
M  ZZC  65 h242
M  ZZM   1 1
M  ZZI   1 111
M  ZZM   2 3
M  ZZI   2 121
M  ZZM   3 7
M  ZZI   3 81
M  ZZM   4 10
M  ZZI   4 211
M  ZZM   5 1
M  ZZI   5 113
M  ZZM   6 1
M  ZZI   6 110
M  ZZM   7 1
M  ZZI   7 111
M  ZZM   8 1
M  ZZI   8 111
M  ZZM   9 1
M  ZZI   9 111
M  ZZM  10 3
M  ZZI  10 121
M  ZZM  11 7
M  ZZI  11 81
M  ZZM  12 10
M  ZZI  12 192
M  ZZM  13 1
M  ZZI  13 113
M  ZZM  14 3
M  ZZI  14 121
M  ZZM  15 7
M  ZZI  15 81
M  ZZM  16 10
M  ZZI  16 211
M  ZZM  17 1
M  ZZI  17 112
M  ZZM  18 37
M  ZZI  18 124
M  ZZM  19 37
M  ZZI  19 125
M  ZZM  20 37
M  ZZI  20 125
M  ZZM  21 37
M  ZZI  21 124
M  ZZM  22 63
M  ZZI  22 104
M  ZZM  23 64
M  ZZI  23 105
M  ZZM  24 1
M  ZZI  24 111
M  ZZM  25 66
M  ZZI  25 222
M  ZZM  26 63
M  ZZI  26 104
M  ZZM  27 44
M  ZZI  27 248
M  ZZM  28 37
M  ZZI  28 125
M  ZZM  29 37
M  ZZI  29 125
M  ZZM  30 1
M  ZZI  30 112
M  ZZM  31 1
M  ZZI  31 113
M  ZZM  32 6
M  ZZI  32 60
M  ZZM  33 1
M  ZZI  33 112
M  ZZM  34 5
M  ZZI  34 1
M  ZZM  35 5
M  ZZI  35 1
M  ZZM  36 5
M  ZZI  36 1
M  ZZM  37 28
M  ZZI  37 11
M  ZZM  38 5
M  ZZI  38 1
M  ZZM  39 5
M  ZZI  39 1
M  ZZM  40 5
M  ZZI  40 1
M  ZZM  41 5
M  ZZI  41 1
M  ZZM  42 5
M  ZZI  42 1
M  ZZM  43 5
M  ZZI  43 1
M  ZZM  44 5
M  ZZI  44 1
M  ZZM  45 5
M  ZZI  45 1
M  ZZM  46 5
M  ZZI  46 1
M  ZZM  47 5
M  ZZI  47 1
M  ZZM  48 5
M  ZZI  48 1
M  ZZM  49 28
M  ZZI  49 11
M  ZZM  50 5
M  ZZI  50 1
M  ZZM  51 5
M  ZZI  51 1
M  ZZM  52 5
M  ZZI  52 1
M  ZZM  53 5
M  ZZI  53 1
M  ZZM  54 5
M  ZZI  54 1
M  ZZM  55 5
M  ZZI  55 1
M  ZZM  56 5
M  ZZI  56 1
M  ZZM  57 5
M  ZZI  57 1
M  ZZM  58 5
M  ZZI  58 1
M  ZZM  59 5
M  ZZI  59 1
M  ZZM  60 5
M  ZZI  60 1
M  ZZM  61 5
M  ZZI  61 1
M  ZZM  62 5
M  ZZI  62 1
M  ZZM  63 21
M  ZZI  63 20
M  ZZM  64 5
M  ZZI  64 1
M  ZZM  65 5
M  ZZI  65 1
M  END
> <IX>
1

> <NAME>
VHL_3UE4_5.pdb

> <Score>
-7.29804

> <Natom>
65

> <Nflex>
8

> <Hbond>
-6.197989

> <Hphob>
-6.931221

> <VwInt>
-28.237967

> <Dsolv>
21.817275

> <SolEl>
23.903334

> <Eintl>
7.209336

> <RecConf>
ND

> <projPath>
VHL_maps/

> <NAME_>
VHL_3UE4_5.pdb

$$$$
