VHL_3K6P_5.pdb
  MOLSOFT 04032206373D

 61 63  0  0  1  0  0  0  0  0999 V2000
   16.8861   -4.6294   -4.2577 N   0  3  0  0  0  0  0  0  0  0  0  0
   16.0256   -3.4186   -3.9465 C   0  0  1  0  0  0  0  0  0  0  0  0
   15.9302   -3.1755   -2.4076 C   0  0  0  0  0  0  0  0  0  0  0  0
   17.2676   -2.7339   -1.7974 C   0  0  0  0  0  0  0  0  0  0  0  0
   14.8868   -2.0985   -2.0802 C   0  0  0  0  0  0  0  0  0  0  0  0
   15.4772   -4.4634   -1.7075 C   0  0  0  0  0  0  0  0  0  0  0  0
   16.5472   -2.2244   -4.7701 C   0  0  0  0  0  0  0  0  0  0  0  0
   17.7525   -2.0305   -4.8684 O   0  0  0  0  0  0  0  0  0  0  0  0
   15.6081   -1.4561   -5.4615 N   0  0  0  0  0  0  0  0  0  0  0  0
   16.0114   -0.5650   -6.5403 C   0  0  2  0  0  0  0  0  0  0  0  0
   16.4135    0.8254   -6.0417 C   0  0  0  0  0  0  0  0  0  0  0  0
   15.8900    1.3611   -5.0742 O   0  0  0  0  0  0  0  0  0  0  0  0
   17.3673    1.4349   -6.8352 N   0  0  0  0  0  0  0  0  0  0  0  0
   17.8342    2.7862   -6.5714 C   0  0  0  0  0  0  0  0  0  0  0  0
   19.2489    3.0492   -7.0298 C   0  0  0  0  0  0  0  0  0  0  0  0
   20.1837    2.0271   -7.1356 C   0  0  0  0  0  0  0  0  0  0  0  0
   21.4877    2.2898   -7.5018 C   0  0  0  0  0  0  0  0  0  0  0  0
   21.9122    3.5820   -7.7665 C   0  0  0  0  0  0  0  0  0  0  0  0
   23.2997    3.8300   -8.1239 C   0  0  0  0  0  0  0  0  0  0  0  0
   24.3709    4.2391   -7.3428 C   0  0  0  0  0  0  0  0  0  0  0  0
   24.3424    4.5708   -5.9003 C   0  0  0  0  0  0  0  0  0  0  0  0
   25.5813    4.3104   -8.0030 N   0  0  0  0  0  0  0  0  0  0  0  0
   25.4169    3.9819   -9.2647 C   0  0  0  0  0  0  0  0  0  0  0  0
   23.8279    3.5798   -9.7396 S   0  0  0  0  0  0  0  0  0  0  0  0
   20.9888    4.6141   -7.6578 C   0  0  0  0  0  0  0  0  0  0  0  0
   19.6759    4.3489   -7.2938 C   0  0  0  0  0  0  0  0  0  0  0  0
   14.7731   -0.4877   -7.4185 C   0  0  0  0  0  0  0  0  0  0  0  0
   13.6173   -0.5890   -6.4326 C   0  0  1  0  0  0  0  0  0  0  0  0
   12.4806   -1.2208   -7.0164 O   0  0  0  0  0  0  0  0  0  0  0  0
   14.1611   -1.4648   -5.3165 C   0  0  0  0  0  0  0  0  0  0  0  0
   16.9349   -4.7890   -5.2728 H   0  0  0  0  0  0  0  0  0  0  0  0
   16.5283   -5.5014   -3.8445 H   0  0  0  0  0  0  0  0  0  0  0  0
   17.8637   -4.5092   -3.9532 H   0  0  0  0  0  0  0  0  0  0  0  0
   15.0414   -3.7119   -4.3161 H   0  0  0  0  0  0  0  0  0  0  0  0
   17.1936   -2.6264   -0.7103 H   0  0  0  0  0  0  0  0  0  0  0  0
   17.6008   -1.7700   -2.1936 H   0  0  0  0  0  0  0  0  0  0  0  0
   18.0551   -3.4601   -1.9918 H   0  0  0  0  0  0  0  0  0  0  0  0
   15.1681   -1.1270   -2.4999 H   0  0  0  0  0  0  0  0  0  0  0  0
   14.7834   -1.9582   -0.9996 H   0  0  0  0  0  0  0  0  0  0  0  0
   13.9050   -2.3449   -2.4945 H   0  0  0  0  0  0  0  0  0  0  0  0
   15.2321   -4.2807   -0.6570 H   0  0  0  0  0  0  0  0  0  0  0  0
   16.2569   -5.2267   -1.7270 H   0  0  0  0  0  0  0  0  0  0  0  0
   14.5873   -4.8884   -2.1816 H   0  0  0  0  0  0  0  0  0  0  0  0
   16.8533   -1.0061   -7.0852 H   0  0  0  0  0  0  0  0  0  0  0  0
   17.7648    0.9223   -7.6176 H   0  0  0  0  0  0  0  0  0  0  0  0
   17.1426    3.4555   -7.0947 H   0  0  0  0  0  0  0  0  0  0  0  0
   17.7569    2.9930   -5.4987 H   0  0  0  0  0  0  0  0  0  0  0  0
   19.9053    1.0000   -6.9314 H   0  0  0  0  0  0  0  0  0  0  0  0
   22.1795    1.4605   -7.5817 H   0  0  0  0  0  0  0  0  0  0  0  0
   25.3200    4.9221   -5.5577 H   0  0  0  0  0  0  0  0  0  0  0  0
   24.0800    3.6914   -5.3077 H   0  0  0  0  0  0  0  0  0  0  0  0
   23.6120    5.3584   -5.6945 H   0  0  0  0  0  0  0  0  0  0  0  0
   26.2352    3.9683   -9.9702 H   0  0  0  0  0  0  0  0  0  0  0  0
   21.2884    5.6391   -7.8559 H   0  0  0  0  0  0  0  0  0  0  0  0
   18.9789    5.1778   -7.2098 H   0  0  0  0  0  0  0  0  0  0  0  0
   14.7172    0.4226   -8.0249 H   0  0  0  0  0  0  0  0  0  0  0  0
   14.7546   -1.3397   -8.1065 H   0  0  0  0  0  0  0  0  0  0  0  0
   13.3221    0.3951   -6.0511 H   0  0  0  0  0  0  0  0  0  0  0  0
   12.1370   -0.6446   -7.7233 H   0  0  0  0  0  0  0  0  0  0  0  0
   13.7718   -2.4841   -5.3536 H   0  0  0  0  0  0  0  0  0  0  0  0
   13.8945   -1.0395   -4.3477 H   0  0  0  0  0  0  0  0  0  0  0  0
  1 31  1  0  0  0  0
  1 32  1  0  0  0  0
  1 33  1  0  0  0  0
  2  1  1  0  0  0  0
  2 34  1  0  0  0  0
  2  3  1  0  0  0  0
  2  7  1  0  0  0  0
  3  4  1  0  0  0  0
  3  5  1  0  0  0  0
  3  6  1  0  0  0  0
  4 35  1  0  0  0  0
  4 36  1  0  0  0  0
  4 37  1  0  0  0  0
  5 38  1  0  0  0  0
  5 39  1  0  0  0  0
  5 40  1  0  0  0  0
  6 41  1  0  0  0  0
  6 42  1  0  0  0  0
  6 43  1  0  0  0  0
  7  8  2  0  0  0  0
  7  9  1  0  0  0  0
  9 30  1  0  0  0  0
 10  9  1  0  0  0  0
 10 27  1  0  0  0  0
 10 44  1  0  0  0  0
 10 11  1  0  0  0  0
 11 12  2  0  0  0  0
 11 13  1  0  0  0  0
 13 45  1  0  0  0  0
 13 14  1  0  0  0  0
 14 46  1  0  0  0  0
 14 47  1  0  0  0  0
 14 15  1  0  0  0  0
 15 16  1  0  0  0  0
 15 26  2  0  0  0  0
 16 48  1  0  0  0  0
 16 17  2  0  0  0  0
 17 49  1  0  0  0  0
 17 18  1  0  0  0  0
 18 25  2  0  0  0  0
 18 19  1  0  0  0  0
 19 20  2  0  0  0  0
 19 24  1  0  0  0  0
 20 21  1  0  0  0  0
 20 22  1  0  0  0  0
 21 50  1  0  0  0  0
 21 51  1  0  0  0  0
 21 52  1  0  0  0  0
 22 23  2  0  0  0  0
 23 53  1  0  0  0  0
 23 24  1  0  0  0  0
 25 54  1  0  0  0  0
 25 26  1  0  0  0  0
 26 55  1  0  0  0  0
 28 27  1  0  0  0  0
 27 56  1  0  0  0  0
 27 57  1  0  0  0  0
 28 30  1  0  0  0  0
 28 58  1  0  0  0  0
 28 29  1  0  0  0  0
 29 59  1  0  0  0  0
 30 60  1  0  0  0  0
 30 61  1  0  0  0  0
M  ZZC   1 n1
M  ZZC   2 c1
M  ZZC   3 c2
M  ZZC   4 c3
M  ZZC   5 c4
M  ZZC   6 c5
M  ZZC   7 c6
M  ZZC   8 o1
M  ZZC   9 n2
M  ZZC  10 c7
M  ZZC  11 c8
M  ZZC  12 o2
M  ZZC  13 n3
M  ZZC  14 c9
M  ZZC  15 c10
M  ZZC  16 c11
M  ZZC  17 c12
M  ZZC  18 c13
M  ZZC  19 c14
M  ZZC  20 c15
M  ZZC  21 c16
M  ZZC  22 n4
M  ZZC  23 c17
M  ZZC  24 s1
M  ZZC  25 c18
M  ZZC  26 c19
M  ZZC  27 c20
M  ZZC  28 c21
M  ZZC  29 o3
M  ZZC  30 c22
M  ZZC  31 h11
M  ZZC  32 h12
M  ZZC  33 h13
M  ZZC  34 h01
M  ZZC  35 h31
M  ZZC  36 h32
M  ZZC  37 h33
M  ZZC  38 h41
M  ZZC  39 h42
M  ZZC  40 h43
M  ZZC  41 h51
M  ZZC  42 h52
M  ZZC  43 h53
M  ZZC  44 h71
M  ZZC  45 h02
M  ZZC  46 h91
M  ZZC  47 h92
M  ZZC  48 h111
M  ZZC  49 h121
M  ZZC  50 h161
M  ZZC  51 h162
M  ZZC  52 h163
M  ZZC  53 h171
M  ZZC  54 h181
M  ZZC  55 h191
M  ZZC  56 h201
M  ZZC  57 h202
M  ZZC  58 h211
M  ZZC  59 h03
M  ZZC  60 h221
M  ZZC  61 h222
M  ZZM   1 34
M  ZZI   1 231
M  ZZM   2 1
M  ZZI   2 113
M  ZZM   3 1
M  ZZI   3 110
M  ZZM   4 1
M  ZZI   4 111
M  ZZM   5 1
M  ZZI   5 111
M  ZZM   6 1
M  ZZI   6 111
M  ZZM   7 3
M  ZZI   7 121
M  ZZM   8 7
M  ZZI   8 81
M  ZZM   9 10
M  ZZI   9 192
M  ZZM  10 1
M  ZZI  10 113
M  ZZM  11 3
M  ZZI  11 121
M  ZZM  12 7
M  ZZI  12 81
M  ZZM  13 10
M  ZZI  13 211
M  ZZM  14 1
M  ZZI  14 112
M  ZZM  15 37
M  ZZI  15 124
M  ZZM  16 37
M  ZZI  16 125
M  ZZM  17 37
M  ZZI  17 125
M  ZZM  18 37
M  ZZI  18 124
M  ZZM  19 63
M  ZZI  19 104
M  ZZM  20 64
M  ZZI  20 105
M  ZZM  21 1
M  ZZI  21 111
M  ZZM  22 66
M  ZZI  22 222
M  ZZM  23 63
M  ZZI  23 104
M  ZZM  24 44
M  ZZI  24 248
M  ZZM  25 37
M  ZZI  25 125
M  ZZM  26 37
M  ZZI  26 125
M  ZZM  27 1
M  ZZI  27 112
M  ZZM  28 1
M  ZZI  28 113
M  ZZM  29 6
M  ZZI  29 60
M  ZZM  30 1
M  ZZI  30 112
M  ZZM  31 36
M  ZZI  31 17
M  ZZM  32 36
M  ZZI  32 17
M  ZZM  33 36
M  ZZI  33 17
M  ZZM  34 5
M  ZZI  34 1
M  ZZM  35 5
M  ZZI  35 1
M  ZZM  36 5
M  ZZI  36 1
M  ZZM  37 5
M  ZZI  37 1
M  ZZM  38 5
M  ZZI  38 1
M  ZZM  39 5
M  ZZI  39 1
M  ZZM  40 5
M  ZZI  40 1
M  ZZM  41 5
M  ZZI  41 1
M  ZZM  42 5
M  ZZI  42 1
M  ZZM  43 5
M  ZZI  43 1
M  ZZM  44 5
M  ZZI  44 1
M  ZZM  45 28
M  ZZI  45 11
M  ZZM  46 5
M  ZZI  46 1
M  ZZM  47 5
M  ZZI  47 1
M  ZZM  48 5
M  ZZI  48 1
M  ZZM  49 5
M  ZZI  49 1
M  ZZM  50 5
M  ZZI  50 1
M  ZZM  51 5
M  ZZI  51 1
M  ZZM  52 5
M  ZZI  52 1
M  ZZM  53 5
M  ZZI  53 1
M  ZZM  54 5
M  ZZI  54 1
M  ZZM  55 5
M  ZZI  55 1
M  ZZM  56 5
M  ZZI  56 1
M  ZZM  57 5
M  ZZI  57 1
M  ZZM  58 5
M  ZZI  58 1
M  ZZM  59 21
M  ZZI  59 20
M  ZZM  60 5
M  ZZI  60 1
M  ZZM  61 5
M  ZZI  61 1
M  CHG  1   1   1
M  END
> <IX>
1

> <NAME>
VHL_3K6P_5.pdb

> <Score>
-8.71412

> <Natom>
61

> <Nflex>
7

> <Hbond>
-4.743362

> <Hphob>
-5.556872

> <VwInt>
-26.410907

> <Dsolv>
16.454699

> <SolEl>
19.032354

> <Eintl>
7.197032

> <RecConf>
ND

> <projPath>
VHL_maps/

> <NAME_>
VHL_3K6P_5.pdb

$$$$
