VHL_5EU1_22.pdb
  MOLSOFT 04032206423D

 70 73  0  0  1  0  0  0  0  0999 V2000
   18.7443   -5.3892   -5.9370 F   0  0  0  0  0  0  0  0  0  0  0  0
   17.7019   -5.9685   -5.2192 C   0  0  0  0  0  0  0  0  0  0  0  0
   16.8225   -5.0246   -4.4635 C   0  0  0  0  0  0  0  0  0  0  0  0
   15.7528   -5.3862   -3.9952 O   0  0  0  0  0  0  0  0  0  0  0  0
   17.3041   -3.7352   -4.3672 N   0  0  0  0  0  0  0  0  0  0  0  0
   16.4631   -2.6123   -3.9324 C   0  0  1  0  0  0  0  0  0  0  0  0
   16.6680   -2.1718   -2.4501 C   0  0  0  0  0  0  0  0  0  0  0  0
   16.4467   -3.3652   -1.5064 C   0  0  0  0  0  0  0  0  0  0  0  0
   18.0693   -1.6016   -2.1934 C   0  0  0  0  0  0  0  0  0  0  0  0
   15.6396   -1.0957   -2.0690 C   0  0  0  0  0  0  0  0  0  0  0  0
   16.7442   -1.5080   -4.9727 C   0  0  0  0  0  0  0  0  0  0  0  0
   17.8943   -1.1935   -5.2564 O   0  0  0  0  0  0  0  0  0  0  0  0
   15.6419   -0.9385   -5.6124 N   0  0  0  0  0  0  0  0  0  0  0  0
   15.8050   -0.0972   -6.7921 C   0  0  2  0  0  0  0  0  0  0  0  0
   16.1178    1.3594   -6.4289 C   0  0  0  0  0  0  0  0  0  0  0  0
   15.3139    2.0969   -5.8748 O   0  0  0  0  0  0  0  0  0  0  0  0
   17.4042    1.7402   -6.7575 N   0  0  0  0  0  0  0  0  0  0  0  0
   17.9324    3.0611   -6.4606 C   0  0  0  0  0  0  0  0  0  0  0  0
   19.3322    3.2945   -6.9869 C   0  0  0  0  0  0  0  0  0  0  0  0
   20.2804    2.2812   -7.0394 C   0  0  0  0  0  0  0  0  0  0  0  0
   19.9397    1.0200   -6.6081 O   0  0  0  0  0  0  0  0  0  0  0  0
   21.5651    2.4844   -7.4988 C   0  0  0  0  0  0  0  0  0  0  0  0
   21.9691    3.7455   -7.8977 C   0  0  0  0  0  0  0  0  0  0  0  0
   23.3438    3.9470   -8.3233 C   0  0  0  0  0  0  0  0  0  0  0  0
   24.4766    4.2483   -7.5810 C   0  0  0  0  0  0  0  0  0  0  0  0
   24.5397    4.5059   -6.1243 C   0  0  0  0  0  0  0  0  0  0  0  0
   25.6536    4.2828   -8.3014 N   0  0  0  0  0  0  0  0  0  0  0  0
   25.4047    4.0285   -9.5665 C   0  0  0  0  0  0  0  0  0  0  0  0
   23.7722    3.7405   -9.9729 S   0  0  0  0  0  0  0  0  0  0  0  0
   21.0446    4.7840   -7.8454 C   0  0  0  0  0  0  0  0  0  0  0  0
   19.7459    4.5610   -7.3992 C   0  0  0  0  0  0  0  0  0  0  0  0
   14.4698   -0.2230   -7.5068 C   0  0  0  0  0  0  0  0  0  0  0  0
   13.4572   -0.4428   -6.3942 C   0  0  1  0  0  0  0  0  0  0  0  0
   12.3362   -1.2021   -6.8491 O   0  0  0  0  0  0  0  0  0  0  0  0
   14.2410   -1.2393   -5.3671 C   0  0  0  0  0  0  0  0  0  0  0  0
   18.0073   -7.3354   -4.6726 C   0  0  0  0  0  0  0  0  0  0  0  0
   17.1210   -7.2058   -5.8660 C   0  0  0  0  0  0  0  0  0  0  0  0
   18.2291   -3.5405   -4.7438 H   0  0  0  0  0  0  0  0  0  0  0  0
   15.4309   -2.9538   -4.0345 H   0  0  0  0  0  0  0  0  0  0  0  0
   16.5147   -3.0647   -0.4559 H   0  0  0  0  0  0  0  0  0  0  0  0
   17.1925   -4.1479   -1.6596 H   0  0  0  0  0  0  0  0  0  0  0  0
   15.4582   -3.8140   -1.6509 H   0  0  0  0  0  0  0  0  0  0  0  0
   18.2230   -1.3792   -1.1327 H   0  0  0  0  0  0  0  0  0  0  0  0
   18.2421   -0.6698   -2.7396 H   0  0  0  0  0  0  0  0  0  0  0  0
   18.8431   -2.3097   -2.4869 H   0  0  0  0  0  0  0  0  0  0  0  0
   15.7444   -0.2037   -2.6953 H   0  0  0  0  0  0  0  0  0  0  0  0
   15.7652   -0.7722   -1.0304 H   0  0  0  0  0  0  0  0  0  0  0  0
   14.6118   -1.4512   -2.1901 H   0  0  0  0  0  0  0  0  0  0  0  0
   16.6095   -0.4966   -7.4211 H   0  0  0  0  0  0  0  0  0  0  0  0
   18.0582    1.0309   -7.0836 H   0  0  0  0  0  0  0  0  0  0  0  0
   17.2359    3.7915   -6.8873 H   0  0  0  0  0  0  0  0  0  0  0  0
   17.9223    3.1902   -5.3730 H   0  0  0  0  0  0  0  0  0  0  0  0
   20.3796    0.3918   -7.2087 H   0  0  0  0  0  0  0  0  0  0  0  0
   22.2594    1.6534   -7.5330 H   0  0  0  0  0  0  0  0  0  0  0  0
   23.9529    5.3907   -5.8613 H   0  0  0  0  0  0  0  0  0  0  0  0
   25.5700    4.6748   -5.7979 H   0  0  0  0  0  0  0  0  0  0  0  0
   24.1496    3.6544   -5.5610 H   0  0  0  0  0  0  0  0  0  0  0  0
   26.1833    4.0015  -10.3155 H   0  0  0  0  0  0  0  0  0  0  0  0
   21.3329    5.7848   -8.1534 H   0  0  0  0  0  0  0  0  0  0  0  0
   19.0516    5.3959   -7.3706 H   0  0  0  0  0  0  0  0  0  0  0  0
   14.2181    0.6386   -8.1345 H   0  0  0  0  0  0  0  0  0  0  0  0
   14.4991   -1.1051   -8.1534 H   0  0  0  0  0  0  0  0  0  0  0  0
   13.1033    0.5048   -5.9736 H   0  0  0  0  0  0  0  0  0  0  0  0
   11.8736   -0.6874   -7.5357 H   0  0  0  0  0  0  0  0  0  0  0  0
   14.0709   -2.3147   -5.4748 H   0  0  0  0  0  0  0  0  0  0  0  0
   13.9672   -0.9562   -4.3480 H   0  0  0  0  0  0  0  0  0  0  0  0
   18.9985   -7.7320   -4.8451 H   0  0  0  0  0  0  0  0  0  0  0  0
   17.5479   -7.6360   -3.7416 H   0  0  0  0  0  0  0  0  0  0  0  0
   16.0718   -7.4249   -5.7350 H   0  0  0  0  0  0  0  0  0  0  0  0
   17.5287   -7.5465   -6.8064 H   0  0  0  0  0  0  0  0  0  0  0  0
  2  1  1  0  0  0  0
  2 36  1  0  0  0  0
  2  3  1  0  0  0  0
  2 37  1  0  0  0  0
  3  4  2  0  0  0  0
  3  5  1  0  0  0  0
  5 38  1  0  0  0  0
  6  5  1  0  0  0  0
  6 39  1  0  0  0  0
  6  7  1  0  0  0  0
  6 11  1  0  0  0  0
  7  8  1  0  0  0  0
  7  9  1  0  0  0  0
  7 10  1  0  0  0  0
  8 40  1  0  0  0  0
  8 41  1  0  0  0  0
  8 42  1  0  0  0  0
  9 43  1  0  0  0  0
  9 44  1  0  0  0  0
  9 45  1  0  0  0  0
 10 46  1  0  0  0  0
 10 47  1  0  0  0  0
 10 48  1  0  0  0  0
 11 12  2  0  0  0  0
 11 13  1  0  0  0  0
 13 35  1  0  0  0  0
 14 13  1  0  0  0  0
 14 32  1  0  0  0  0
 14 49  1  0  0  0  0
 14 15  1  0  0  0  0
 15 16  2  0  0  0  0
 15 17  1  0  0  0  0
 17 50  1  0  0  0  0
 17 18  1  0  0  0  0
 18 51  1  0  0  0  0
 18 52  1  0  0  0  0
 18 19  1  0  0  0  0
 19 20  2  0  0  0  0
 19 31  1  0  0  0  0
 20 21  1  0  0  0  0
 20 22  1  0  0  0  0
 21 53  1  0  0  0  0
 22 54  1  0  0  0  0
 22 23  2  0  0  0  0
 23 30  1  0  0  0  0
 23 24  1  0  0  0  0
 24 25  2  0  0  0  0
 24 29  1  0  0  0  0
 25 26  1  0  0  0  0
 25 27  1  0  0  0  0
 26 55  1  0  0  0  0
 26 56  1  0  0  0  0
 26 57  1  0  0  0  0
 27 28  2  0  0  0  0
 28 58  1  0  0  0  0
 28 29  1  0  0  0  0
 30 59  1  0  0  0  0
 30 31  2  0  0  0  0
 31 60  1  0  0  0  0
 33 32  1  0  0  0  0
 32 61  1  0  0  0  0
 32 62  1  0  0  0  0
 33 35  1  0  0  0  0
 33 63  1  0  0  0  0
 33 34  1  0  0  0  0
 34 64  1  0  0  0  0
 35 65  1  0  0  0  0
 35 66  1  0  0  0  0
 36 67  1  0  0  0  0
 36 68  1  0  0  0  0
 36 37  1  0  0  0  0
 37 69  1  0  0  0  0
 37 70  1  0  0  0  0
M  ZZC   1 f1
M  ZZC   2 c1
M  ZZC   3 c2
M  ZZC   4 o1
M  ZZC   5 n1
M  ZZC   6 c3
M  ZZC   7 c4
M  ZZC   8 c5
M  ZZC   9 c6
M  ZZC  10 c7
M  ZZC  11 c8
M  ZZC  12 o2
M  ZZC  13 n2
M  ZZC  14 c9
M  ZZC  15 c10
M  ZZC  16 o3
M  ZZC  17 n3
M  ZZC  18 c11
M  ZZC  19 c12
M  ZZC  20 c13
M  ZZC  21 o4
M  ZZC  22 c14
M  ZZC  23 c15
M  ZZC  24 c16
M  ZZC  25 c17
M  ZZC  26 c18
M  ZZC  27 n4
M  ZZC  28 c19
M  ZZC  29 s1
M  ZZC  30 c20
M  ZZC  31 c21
M  ZZC  32 c22
M  ZZC  33 c23
M  ZZC  34 o5
M  ZZC  35 c24
M  ZZC  36 c25
M  ZZC  37 c26
M  ZZC  38 h11
M  ZZC  39 h31
M  ZZC  40 h51
M  ZZC  41 h52
M  ZZC  42 h53
M  ZZC  43 h61
M  ZZC  44 h62
M  ZZC  45 h63
M  ZZC  46 h71
M  ZZC  47 h72
M  ZZC  48 h73
M  ZZC  49 h91
M  ZZC  50 h01
M  ZZC  51 h111
M  ZZC  52 h112
M  ZZC  53 h41
M  ZZC  54 h141
M  ZZC  55 h181
M  ZZC  56 h182
M  ZZC  57 h183
M  ZZC  58 h191
M  ZZC  59 h201
M  ZZC  60 h211
M  ZZC  61 h221
M  ZZC  62 h222
M  ZZC  63 h231
M  ZZC  64 h02
M  ZZC  65 h241
M  ZZC  66 h242
M  ZZC  67 h251
M  ZZC  68 h252
M  ZZC  69 h261
M  ZZC  70 h262
M  ZZM   1 11
M  ZZI   1 90
M  ZZM   2 22
M  ZZI   2 109
M  ZZM   3 3
M  ZZI   3 121
M  ZZM   4 7
M  ZZI   4 81
M  ZZM   5 10
M  ZZI   5 211
M  ZZM   6 1
M  ZZI   6 113
M  ZZM   7 1
M  ZZI   7 110
M  ZZM   8 1
M  ZZI   8 111
M  ZZM   9 1
M  ZZI   9 111
M  ZZM  10 1
M  ZZI  10 111
M  ZZM  11 3
M  ZZI  11 121
M  ZZM  12 7
M  ZZI  12 81
M  ZZM  13 10
M  ZZI  13 192
M  ZZM  14 1
M  ZZI  14 113
M  ZZM  15 3
M  ZZI  15 121
M  ZZM  16 7
M  ZZI  16 81
M  ZZM  17 10
M  ZZI  17 211
M  ZZM  18 1
M  ZZI  18 112
M  ZZM  19 37
M  ZZI  19 124
M  ZZM  20 37
M  ZZI  20 124
M  ZZM  21 6
M  ZZI  21 62
M  ZZM  22 37
M  ZZI  22 125
M  ZZM  23 37
M  ZZI  23 124
M  ZZM  24 63
M  ZZI  24 104
M  ZZM  25 64
M  ZZI  25 105
M  ZZM  26 1
M  ZZI  26 111
M  ZZM  27 66
M  ZZI  27 222
M  ZZM  28 63
M  ZZI  28 104
M  ZZM  29 44
M  ZZI  29 248
M  ZZM  30 37
M  ZZI  30 125
M  ZZM  31 37
M  ZZI  31 125
M  ZZM  32 1
M  ZZI  32 112
M  ZZM  33 1
M  ZZI  33 113
M  ZZM  34 6
M  ZZI  34 60
M  ZZM  35 1
M  ZZI  35 112
M  ZZM  36 22
M  ZZI  36 109
M  ZZM  37 22
M  ZZI  37 109
M  ZZM  38 28
M  ZZI  38 11
M  ZZM  39 5
M  ZZI  39 1
M  ZZM  40 5
M  ZZI  40 1
M  ZZM  41 5
M  ZZI  41 1
M  ZZM  42 5
M  ZZI  42 1
M  ZZM  43 5
M  ZZI  43 1
M  ZZM  44 5
M  ZZI  44 1
M  ZZM  45 5
M  ZZI  45 1
M  ZZM  46 5
M  ZZI  46 1
M  ZZM  47 5
M  ZZI  47 1
M  ZZM  48 5
M  ZZI  48 1
M  ZZM  49 5
M  ZZI  49 1
M  ZZM  50 28
M  ZZI  50 11
M  ZZM  51 5
M  ZZI  51 1
M  ZZM  52 5
M  ZZI  52 1
M  ZZM  53 29
M  ZZI  53 27
M  ZZM  54 5
M  ZZI  54 1
M  ZZM  55 5
M  ZZI  55 1
M  ZZM  56 5
M  ZZI  56 1
M  ZZM  57 5
M  ZZI  57 1
M  ZZM  58 5
M  ZZI  58 1
M  ZZM  59 5
M  ZZI  59 1
M  ZZM  60 5
M  ZZI  60 1
M  ZZM  61 5
M  ZZI  61 1
M  ZZM  62 5
M  ZZI  62 1
M  ZZM  63 5
M  ZZI  63 1
M  ZZM  64 21
M  ZZI  64 20
M  ZZM  65 5
M  ZZI  65 1
M  ZZM  66 5
M  ZZI  66 1
M  ZZM  67 5
M  ZZI  67 1
M  ZZM  68 5
M  ZZI  68 1
M  ZZM  69 5
M  ZZI  69 1
M  ZZM  70 5
M  ZZI  70 1
M  END
> <IX>
1

> <NAME>
VHL_5EU1_22.pdb

> <Score>
-22.001028

> <Natom>
70

> <Nflex>
9

> <Hbond>
-8.421761

> <Hphob>
-6.265612

> <VwInt>
-33.393062

> <Dsolv>
20.513263

> <SolEl>
16.097554

> <Eintl>
9.146195

> <RecConf>
ND

> <projPath>
VHL_maps/

> <NAME_>
VHL_5EU1_22.pdb

$$$$
