VHL_5EHR_11.pdb
  MOLSOFT 04032206393D

 68 70  0  0  1  0  0  0  0  0999 V2000
   15.5649   -4.3856  -15.4644 C   0  0  0  0  0  0  0  0  0  0  0  0
   15.1470   -3.8017  -16.7831 C   0  0  0  0  0  0  0  0  0  0  0  0
   15.3299   -4.4037  -17.8305 O   0  0  0  0  0  0  0  0  0  0  0  0
   14.5898   -2.5412  -16.6866 N   0  0  0  0  0  0  0  0  0  0  0  0
   14.1315   -1.8124  -17.8740 C   0  0  2  0  0  0  0  0  0  0  0  0
   15.1376   -0.7109  -18.3303 C   0  0  0  0  0  0  0  0  0  0  0  0
   15.2899    0.4090  -17.2877 C   0  0  0  0  0  0  0  0  0  0  0  0
   14.6728   -0.0682  -19.6458 C   0  0  0  0  0  0  0  0  0  0  0  0
   16.5205   -1.3338  -18.5843 C   0  0  0  0  0  0  0  0  0  0  0  0
   12.7535   -1.2343  -17.5218 C   0  0  0  0  0  0  0  0  0  0  0  0
   12.5875   -0.6096  -16.4837 O   0  0  0  0  0  0  0  0  0  0  0  0
   11.7120   -1.4316  -18.4289 N   0  0  0  0  0  0  0  0  0  0  0  0
   10.4629   -0.6845  -18.3100 C   0  0  2  0  0  0  0  0  0  0  0  0
    9.5664   -1.1023  -17.1361 C   0  0  0  0  0  0  0  0  0  0  0  0
    9.8735   -1.9662  -16.3269 O   0  0  0  0  0  0  0  0  0  0  0  0
    8.4042   -0.3553  -17.0674 N   0  0  0  0  0  0  0  0  0  0  0  0
    7.3860   -0.5248  -16.0444 C   0  0  1  0  0  0  0  0  0  0  0  0
    7.7660    0.2233  -14.7673 C   0  0  0  0  0  0  0  0  0  0  0  0
    6.0397   -0.0866  -16.5919 C   0  0  0  0  0  0  0  0  0  0  0  0
    5.0104   -1.0122  -16.7435 C   0  0  0  0  0  0  0  0  0  0  0  0
    3.8097   -0.6548  -17.3360 C   0  0  0  0  0  0  0  0  0  0  0  0
    3.6021    0.6389  -17.7986 C   0  0  0  0  0  0  0  0  0  0  0  0
    2.3696    0.9907  -18.4860 C   0  0  0  0  0  0  0  0  0  0  0  0
    2.0655    0.9914  -19.8399 C   0  0  0  0  0  0  0  0  0  0  0  0
    2.9784    0.6358  -20.9501 C   0  0  0  0  0  0  0  0  0  0  0  0
    0.7694    1.3624  -20.1459 N   0  0  0  0  0  0  0  0  0  0  0  0
    0.1264    1.6745  -19.0427 C   0  0  0  0  0  0  0  0  0  0  0  0
    0.9987    1.4972  -17.5866 S   0  0  0  0  0  0  0  0  0  0  0  0
    4.6085    1.5784  -17.6184 C   0  0  0  0  0  0  0  0  0  0  0  0
    5.8057    1.2225  -17.0182 C   0  0  0  0  0  0  0  0  0  0  0  0
    9.7715   -0.8914  -19.6563 C   0  0  0  0  0  0  0  0  0  0  0  0
   10.2985   -2.2337  -20.1257 C   0  0  1  0  0  0  0  0  0  0  0  0
   10.2103   -2.3574  -21.5437 O   0  0  0  0  0  0  0  0  0  0  0  0
   11.7412   -2.2072  -19.6567 C   0  0  0  0  0  0  0  0  0  0  0  0
   15.1513   -3.8200  -14.6267 H   0  0  0  0  0  0  0  0  0  0  0  0
   16.6557   -4.3687  -15.4049 H   0  0  0  0  0  0  0  0  0  0  0  0
   15.2144   -5.4187  -15.3942 H   0  0  0  0  0  0  0  0  0  0  0  0
   14.4653   -2.1089  -15.7714 H   0  0  0  0  0  0  0  0  0  0  0  0
   14.0276   -2.5440  -18.6785 H   0  0  0  0  0  0  0  0  0  0  0  0
   14.3909    1.0262  -17.2218 H   0  0  0  0  0  0  0  0  0  0  0  0
   16.1088    1.0870  -17.5479 H   0  0  0  0  0  0  0  0  0  0  0  0
   15.4946    0.0130  -16.2886 H   0  0  0  0  0  0  0  0  0  0  0  0
   15.3767    0.6974  -19.9864 H   0  0  0  0  0  0  0  0  0  0  0  0
   13.6992    0.4190  -19.5287 H   0  0  0  0  0  0  0  0  0  0  0  0
   14.5643   -0.8056  -20.4472 H   0  0  0  0  0  0  0  0  0  0  0  0
   16.9629   -1.7377  -17.6691 H   0  0  0  0  0  0  0  0  0  0  0  0
   17.2265   -0.5953  -18.9778 H   0  0  0  0  0  0  0  0  0  0  0  0
   16.4648   -2.1482  -19.3136 H   0  0  0  0  0  0  0  0  0  0  0  0
   10.7090    0.3716  -18.1721 H   0  0  0  0  0  0  0  0  0  0  0  0
    8.2633    0.3830  -17.7461 H   0  0  0  0  0  0  0  0  0  0  0  0
    7.3492   -1.5926  -15.8026 H   0  0  0  0  0  0  0  0  0  0  0  0
    8.7106   -0.1488  -14.3581 H   0  0  0  0  0  0  0  0  0  0  0  0
    6.9971    0.1086  -13.9966 H   0  0  0  0  0  0  0  0  0  0  0  0
    7.8994    1.2929  -14.9526 H   0  0  0  0  0  0  0  0  0  0  0  0
    5.1469   -2.0409  -16.4212 H   0  0  0  0  0  0  0  0  0  0  0  0
    3.0363   -1.4077  -17.4567 H   0  0  0  0  0  0  0  0  0  0  0  0
    3.8009    1.3536  -21.0183 H   0  0  0  0  0  0  0  0  0  0  0  0
    2.4528    0.6373  -21.9095 H   0  0  0  0  0  0  0  0  0  0  0  0
    3.4014   -0.3620  -20.8032 H   0  0  0  0  0  0  0  0  0  0  0  0
   -0.8979    2.0182  -19.0457 H   0  0  0  0  0  0  0  0  0  0  0  0
    4.4636    2.6000  -17.9573 H   0  0  0  0  0  0  0  0  0  0  0  0
    6.5757    1.9798  -16.9103 H   0  0  0  0  0  0  0  0  0  0  0  0
    8.6775   -0.8808  -19.6224 H   0  0  0  0  0  0  0  0  0  0  0  0
   10.0688   -0.1061  -20.3616 H   0  0  0  0  0  0  0  0  0  0  0  0
    9.7508   -3.0584  -19.6547 H   0  0  0  0  0  0  0  0  0  0  0  0
    9.2688   -2.3052  -21.7855 H   0  0  0  0  0  0  0  0  0  0  0  0
   12.3893   -1.7048  -20.3813 H   0  0  0  0  0  0  0  0  0  0  0  0
   12.1452   -3.2100  -19.4939 H   0  0  0  0  0  0  0  0  0  0  0  0
  1 35  1  0  0  0  0
  1 36  1  0  0  0  0
  1 37  1  0  0  0  0
  1  2  1  0  0  0  0
  2  3  2  0  0  0  0
  2  4  1  0  0  0  0
  4 38  1  0  0  0  0
  5  4  1  0  0  0  0
  5 39  1  0  0  0  0
  5  6  1  0  0  0  0
  5 10  1  0  0  0  0
  6  7  1  0  0  0  0
  6  8  1  0  0  0  0
  6  9  1  0  0  0  0
  7 40  1  0  0  0  0
  7 41  1  0  0  0  0
  7 42  1  0  0  0  0
  8 43  1  0  0  0  0
  8 44  1  0  0  0  0
  8 45  1  0  0  0  0
  9 46  1  0  0  0  0
  9 47  1  0  0  0  0
  9 48  1  0  0  0  0
 10 11  2  0  0  0  0
 10 12  1  0  0  0  0
 12 34  1  0  0  0  0
 13 12  1  0  0  0  0
 13 31  1  0  0  0  0
 13 49  1  0  0  0  0
 13 14  1  0  0  0  0
 14 15  2  0  0  0  0
 14 16  1  0  0  0  0
 16 50  1  0  0  0  0
 17 16  1  0  0  0  0
 17 51  1  0  0  0  0
 17 18  1  0  0  0  0
 17 19  1  0  0  0  0
 18 52  1  0  0  0  0
 18 53  1  0  0  0  0
 18 54  1  0  0  0  0
 19 20  1  0  0  0  0
 19 30  2  0  0  0  0
 20 55  1  0  0  0  0
 20 21  2  0  0  0  0
 21 56  1  0  0  0  0
 21 22  1  0  0  0  0
 22 29  2  0  0  0  0
 22 23  1  0  0  0  0
 23 24  2  0  0  0  0
 23 28  1  0  0  0  0
 24 25  1  0  0  0  0
 24 26  1  0  0  0  0
 25 57  1  0  0  0  0
 25 58  1  0  0  0  0
 25 59  1  0  0  0  0
 26 27  2  0  0  0  0
 27 60  1  0  0  0  0
 27 28  1  0  0  0  0
 29 61  1  0  0  0  0
 29 30  1  0  0  0  0
 30 62  1  0  0  0  0
 32 31  1  0  0  0  0
 31 63  1  0  0  0  0
 31 64  1  0  0  0  0
 32 34  1  0  0  0  0
 32 65  1  0  0  0  0
 32 33  1  0  0  0  0
 33 66  1  0  0  0  0
 34 67  1  0  0  0  0
 34 68  1  0  0  0  0
M  ZZC   1 c1
M  ZZC   2 c2
M  ZZC   3 o1
M  ZZC   4 n1
M  ZZC   5 c3
M  ZZC   6 c4
M  ZZC   7 c5
M  ZZC   8 c6
M  ZZC   9 c7
M  ZZC  10 c8
M  ZZC  11 o2
M  ZZC  12 n2
M  ZZC  13 c9
M  ZZC  14 c10
M  ZZC  15 o3
M  ZZC  16 n3
M  ZZC  17 c11
M  ZZC  18 c12
M  ZZC  19 c13
M  ZZC  20 c14
M  ZZC  21 c15
M  ZZC  22 c16
M  ZZC  23 c17
M  ZZC  24 c18
M  ZZC  25 c19
M  ZZC  26 n4
M  ZZC  27 c20
M  ZZC  28 s1
M  ZZC  29 c21
M  ZZC  30 c22
M  ZZC  31 c23
M  ZZC  32 c24
M  ZZC  33 o4
M  ZZC  34 c25
M  ZZC  35 h11
M  ZZC  36 h12
M  ZZC  37 h13
M  ZZC  38 h01
M  ZZC  39 h31
M  ZZC  40 h51
M  ZZC  41 h52
M  ZZC  42 h53
M  ZZC  43 h61
M  ZZC  44 h62
M  ZZC  45 h63
M  ZZC  46 h71
M  ZZC  47 h72
M  ZZC  48 h73
M  ZZC  49 h91
M  ZZC  50 h02
M  ZZC  51 h111
M  ZZC  52 h121
M  ZZC  53 h122
M  ZZC  54 h123
M  ZZC  55 h141
M  ZZC  56 h151
M  ZZC  57 h191
M  ZZC  58 h192
M  ZZC  59 h193
M  ZZC  60 h201
M  ZZC  61 h211
M  ZZC  62 h221
M  ZZC  63 h231
M  ZZC  64 h232
M  ZZC  65 h241
M  ZZC  66 h41
M  ZZC  67 h251
M  ZZC  68 h252
M  ZZM   1 1
M  ZZI   1 111
M  ZZM   2 3
M  ZZI   2 121
M  ZZM   3 7
M  ZZI   3 81
M  ZZM   4 10
M  ZZI   4 211
M  ZZM   5 1
M  ZZI   5 113
M  ZZM   6 1
M  ZZI   6 110
M  ZZM   7 1
M  ZZI   7 111
M  ZZM   8 1
M  ZZI   8 111
M  ZZM   9 1
M  ZZI   9 111
M  ZZM  10 3
M  ZZI  10 121
M  ZZM  11 7
M  ZZI  11 81
M  ZZM  12 10
M  ZZI  12 192
M  ZZM  13 1
M  ZZI  13 113
M  ZZM  14 3
M  ZZI  14 121
M  ZZM  15 7
M  ZZI  15 81
M  ZZM  16 10
M  ZZI  16 211
M  ZZM  17 1
M  ZZI  17 113
M  ZZM  18 1
M  ZZI  18 111
M  ZZM  19 37
M  ZZI  19 124
M  ZZM  20 37
M  ZZI  20 125
M  ZZM  21 37
M  ZZI  21 125
M  ZZM  22 37
M  ZZI  22 124
M  ZZM  23 63
M  ZZI  23 104
M  ZZM  24 64
M  ZZI  24 105
M  ZZM  25 1
M  ZZI  25 111
M  ZZM  26 66
M  ZZI  26 222
M  ZZM  27 63
M  ZZI  27 104
M  ZZM  28 44
M  ZZI  28 248
M  ZZM  29 37
M  ZZI  29 125
M  ZZM  30 37
M  ZZI  30 125
M  ZZM  31 1
M  ZZI  31 112
M  ZZM  32 1
M  ZZI  32 113
M  ZZM  33 6
M  ZZI  33 60
M  ZZM  34 1
M  ZZI  34 112
M  ZZM  35 5
M  ZZI  35 1
M  ZZM  36 5
M  ZZI  36 1
M  ZZM  37 5
M  ZZI  37 1
M  ZZM  38 28
M  ZZI  38 11
M  ZZM  39 5
M  ZZI  39 1
M  ZZM  40 5
M  ZZI  40 1
M  ZZM  41 5
M  ZZI  41 1
M  ZZM  42 5
M  ZZI  42 1
M  ZZM  43 5
M  ZZI  43 1
M  ZZM  44 5
M  ZZI  44 1
M  ZZM  45 5
M  ZZI  45 1
M  ZZM  46 5
M  ZZI  46 1
M  ZZM  47 5
M  ZZI  47 1
M  ZZM  48 5
M  ZZI  48 1
M  ZZM  49 5
M  ZZI  49 1
M  ZZM  50 28
M  ZZI  50 11
M  ZZM  51 5
M  ZZI  51 1
M  ZZM  52 5
M  ZZI  52 1
M  ZZM  53 5
M  ZZI  53 1
M  ZZM  54 5
M  ZZI  54 1
M  ZZM  55 5
M  ZZI  55 1
M  ZZM  56 5
M  ZZI  56 1
M  ZZM  57 5
M  ZZI  57 1
M  ZZM  58 5
M  ZZI  58 1
M  ZZM  59 5
M  ZZI  59 1
M  ZZM  60 5
M  ZZI  60 1
M  ZZM  61 5
M  ZZI  61 1
M  ZZM  62 5
M  ZZI  62 1
M  ZZM  63 5
M  ZZI  63 1
M  ZZM  64 5
M  ZZI  64 1
M  ZZM  65 5
M  ZZI  65 1
M  ZZM  66 21
M  ZZI  66 20
M  ZZM  67 5
M  ZZI  67 1
M  ZZM  68 5
M  ZZI  68 1
M  END
> <IX>
1

> <NAME>
VHL_5EHR_11.pdb

> <Score>
-16.140886

> <Natom>
68

> <Nflex>
8

> <Hbond>
-4.019037

> <Hphob>
-6.427466

> <VwInt>
-30.609904

> <Dsolv>
16.201052

> <SolEl>
12.267125

> <Eintl>
6.494153

> <RecConf>
ND

> <projPath>
VHL_maps/

> <NAME_>
VHL_5EHR_11.pdb

$$$$
