VHL_2GQG_4.pdb
  MOLSOFT 04032206383D

 65 67  0  0  1  0  0  0  0  0999 V2000
   18.0642   -7.0323   -5.1228 C   0  0  0  0  0  0  0  0  0  0  0  0
   16.9180   -6.0615   -5.0681 C   0  0  0  0  0  0  0  0  0  0  0  0
   15.8411   -6.3368   -5.5687 O   0  0  0  0  0  0  0  0  0  0  0  0
   17.2066   -4.8997   -4.3811 N   0  0  0  0  0  0  0  0  0  0  0  0
   16.2671   -3.7823   -4.2097 C   0  0  1  0  0  0  0  0  0  0  0  0
   15.8571   -3.5654   -2.7213 C   0  0  0  0  0  0  0  0  0  0  0  0
   14.7215   -2.5405   -2.5851 C   0  0  0  0  0  0  0  0  0  0  0  0
   15.3336   -4.8906   -2.1527 C   0  0  0  0  0  0  0  0  0  0  0  0
   17.0280   -3.0775   -1.8557 C   0  0  0  0  0  0  0  0  0  0  0  0
   16.9642   -2.5790   -4.8683 C   0  0  0  0  0  0  0  0  0  0  0  0
   18.1676   -2.3981   -4.7404 O   0  0  0  0  0  0  0  0  0  0  0  0
   16.1903   -1.6756   -5.5933 N   0  0  0  0  0  0  0  0  0  0  0  0
   16.8237   -0.5841   -6.3209 C   0  0  2  0  0  0  0  0  0  0  0  0
   17.3606    0.5064   -5.3963 C   0  0  0  0  0  0  0  0  0  0  0  0
   16.9134    0.7089   -4.2751 O   0  0  0  0  0  0  0  0  0  0  0  0
   18.3238    1.2941   -6.0034 N   0  0  0  0  0  0  0  0  0  0  0  0
   18.6897    2.5957   -5.4804 C   0  0  0  0  0  0  0  0  0  0  0  0
   17.6896    3.6067   -5.9743 C   0  0  0  0  0  0  0  0  0  0  0  0
   16.4433    3.6921   -5.3628 C   0  0  0  0  0  0  0  0  0  0  0  0
   15.4147    4.3864   -5.9601 C   0  0  0  0  0  0  0  0  0  0  0  0
   15.6226    5.0443   -7.1620 C   0  0  0  0  0  0  0  0  0  0  0  0
   14.4812    5.5996   -7.8556 C   0  0  0  0  0  0  0  0  0  0  0  0
   13.4513    4.9395   -8.5101 C   0  0  0  0  0  0  0  0  0  0  0  0
   13.3328    3.4790   -8.7400 C   0  0  0  0  0  0  0  0  0  0  0  0
   12.4377    5.7565   -8.9563 N   0  0  0  0  0  0  0  0  0  0  0  0
   12.7464    7.0079   -8.6955 C   0  0  0  0  0  0  0  0  0  0  0  0
   14.2261    7.2924   -7.9005 S   0  0  0  0  0  0  0  0  0  0  0  0
   16.8993    5.0815   -7.7091 C   0  0  0  0  0  0  0  0  0  0  0  0
   17.9236    4.3518   -7.1271 C   0  0  0  0  0  0  0  0  0  0  0  0
   15.7303   -0.0333   -7.2364 C   0  0  0  0  0  0  0  0  0  0  0  0
   14.4529   -0.4019   -6.5041 C   0  0  1  0  0  0  0  0  0  0  0  0
   13.3386   -0.4591   -7.3904 O   0  0  0  0  0  0  0  0  0  0  0  0
   14.7957   -1.7717   -5.9545 C   0  0  0  0  0  0  0  0  0  0  0  0
   19.0227   -6.5072   -5.1783 H   0  0  0  0  0  0  0  0  0  0  0  0
   17.9635   -7.6623   -6.0113 H   0  0  0  0  0  0  0  0  0  0  0  0
   18.0374   -7.6611   -4.2298 H   0  0  0  0  0  0  0  0  0  0  0  0
   18.1593   -4.7646   -4.0605 H   0  0  0  0  0  0  0  0  0  0  0  0
   15.3687   -4.0250   -4.7707 H   0  0  0  0  0  0  0  0  0  0  0  0
   14.4122   -2.4061   -1.5447 H   0  0  0  0  0  0  0  0  0  0  0  0
   13.8315   -2.8554   -3.1399 H   0  0  0  0  0  0  0  0  0  0  0  0
   15.0133   -1.5656   -2.9869 H   0  0  0  0  0  0  0  0  0  0  0  0
   15.0000   -4.7721   -1.1187 H   0  0  0  0  0  0  0  0  0  0  0  0
   16.1006   -5.6675   -2.1609 H   0  0  0  0  0  0  0  0  0  0  0  0
   14.4829   -5.2665   -2.7299 H   0  0  0  0  0  0  0  0  0  0  0  0
   16.7434   -3.0089   -0.8007 H   0  0  0  0  0  0  0  0  0  0  0  0
   17.3744   -2.0847   -2.1590 H   0  0  0  0  0  0  0  0  0  0  0  0
   17.8794   -3.7534   -1.9124 H   0  0  0  0  0  0  0  0  0  0  0  0
   17.6508   -0.9819   -6.9060 H   0  0  0  0  0  0  0  0  0  0  0  0
   18.6888    1.0220   -6.9117 H   0  0  0  0  0  0  0  0  0  0  0  0
   18.7101    2.5681   -4.3852 H   0  0  0  0  0  0  0  0  0  0  0  0
   19.6998    2.8306   -5.8318 H   0  0  0  0  0  0  0  0  0  0  0  0
   16.2378    3.1463   -4.4467 H   0  0  0  0  0  0  0  0  0  0  0  0
   14.4291    4.3707   -5.5022 H   0  0  0  0  0  0  0  0  0  0  0  0
   12.4549    3.2529   -9.3517 H   0  0  0  0  0  0  0  0  0  0  0  0
   13.2212    2.9374   -7.7968 H   0  0  0  0  0  0  0  0  0  0  0  0
   14.2177    3.0874   -9.2487 H   0  0  0  0  0  0  0  0  0  0  0  0
   12.1039    7.8297   -8.9564 H   0  0  0  0  0  0  0  0  0  0  0  0
   17.0887    5.6328   -8.6259 H   0  0  0  0  0  0  0  0  0  0  0  0
   18.8944    4.3232   -7.6131 H   0  0  0  0  0  0  0  0  0  0  0  0
   15.7991    1.0430   -7.4259 H   0  0  0  0  0  0  0  0  0  0  0  0
   15.7607   -0.5276   -8.2149 H   0  0  0  0  0  0  0  0  0  0  0  0
   14.2478    0.3172   -5.7018 H   0  0  0  0  0  0  0  0  0  0  0  0
   12.5310   -0.3280   -6.8627 H   0  0  0  0  0  0  0  0  0  0  0  0
   14.7230   -2.5290   -6.7391 H   0  0  0  0  0  0  0  0  0  0  0  0
   14.1518   -2.0745   -5.1299 H   0  0  0  0  0  0  0  0  0  0  0  0
  1 34  1  0  0  0  0
  1 35  1  0  0  0  0
  1 36  1  0  0  0  0
  1  2  1  0  0  0  0
  2  3  2  0  0  0  0
  2  4  1  0  0  0  0
  4 37  1  0  0  0  0
  5  4  1  0  0  0  0
  5 38  1  0  0  0  0
  5  6  1  0  0  0  0
  5 10  1  0  0  0  0
  6  7  1  0  0  0  0
  6  8  1  0  0  0  0
  6  9  1  0  0  0  0
  7 39  1  0  0  0  0
  7 40  1  0  0  0  0
  7 41  1  0  0  0  0
  8 42  1  0  0  0  0
  8 43  1  0  0  0  0
  8 44  1  0  0  0  0
  9 45  1  0  0  0  0
  9 46  1  0  0  0  0
  9 47  1  0  0  0  0
 10 11  2  0  0  0  0
 10 12  1  0  0  0  0
 12 33  1  0  0  0  0
 13 12  1  0  0  0  0
 13 30  1  0  0  0  0
 13 48  1  0  0  0  0
 13 14  1  0  0  0  0
 14 15  2  0  0  0  0
 14 16  1  0  0  0  0
 16 49  1  0  0  0  0
 16 17  1  0  0  0  0
 17 50  1  0  0  0  0
 17 51  1  0  0  0  0
 17 18  1  0  0  0  0
 18 19  1  0  0  0  0
 18 29  2  0  0  0  0
 19 52  1  0  0  0  0
 19 20  2  0  0  0  0
 20 53  1  0  0  0  0
 20 21  1  0  0  0  0
 21 28  2  0  0  0  0
 21 22  1  0  0  0  0
 22 23  2  0  0  0  0
 22 27  1  0  0  0  0
 23 24  1  0  0  0  0
 23 25  1  0  0  0  0
 24 54  1  0  0  0  0
 24 55  1  0  0  0  0
 24 56  1  0  0  0  0
 25 26  2  0  0  0  0
 26 57  1  0  0  0  0
 26 27  1  0  0  0  0
 28 58  1  0  0  0  0
 28 29  1  0  0  0  0
 29 59  1  0  0  0  0
 31 30  1  0  0  0  0
 30 60  1  0  0  0  0
 30 61  1  0  0  0  0
 31 33  1  0  0  0  0
 31 62  1  0  0  0  0
 31 32  1  0  0  0  0
 32 63  1  0  0  0  0
 33 64  1  0  0  0  0
 33 65  1  0  0  0  0
M  ZZC   1 c1
M  ZZC   2 c2
M  ZZC   3 o1
M  ZZC   4 n1
M  ZZC   5 c3
M  ZZC   6 c4
M  ZZC   7 c5
M  ZZC   8 c6
M  ZZC   9 c7
M  ZZC  10 c8
M  ZZC  11 o2
M  ZZC  12 n2
M  ZZC  13 c9
M  ZZC  14 c10
M  ZZC  15 o3
M  ZZC  16 n3
M  ZZC  17 c11
M  ZZC  18 c12
M  ZZC  19 c13
M  ZZC  20 c14
M  ZZC  21 c15
M  ZZC  22 c16
M  ZZC  23 c17
M  ZZC  24 c18
M  ZZC  25 n4
M  ZZC  26 c19
M  ZZC  27 s1
M  ZZC  28 c20
M  ZZC  29 c21
M  ZZC  30 c22
M  ZZC  31 c23
M  ZZC  32 o4
M  ZZC  33 c24
M  ZZC  34 h11
M  ZZC  35 h12
M  ZZC  36 h13
M  ZZC  37 h01
M  ZZC  38 h31
M  ZZC  39 h51
M  ZZC  40 h52
M  ZZC  41 h53
M  ZZC  42 h61
M  ZZC  43 h62
M  ZZC  44 h63
M  ZZC  45 h71
M  ZZC  46 h72
M  ZZC  47 h73
M  ZZC  48 h91
M  ZZC  49 h02
M  ZZC  50 h111
M  ZZC  51 h112
M  ZZC  52 h131
M  ZZC  53 h141
M  ZZC  54 h181
M  ZZC  55 h182
M  ZZC  56 h183
M  ZZC  57 h191
M  ZZC  58 h201
M  ZZC  59 h211
M  ZZC  60 h221
M  ZZC  61 h222
M  ZZC  62 h231
M  ZZC  63 h41
M  ZZC  64 h241
M  ZZC  65 h242
M  ZZM   1 1
M  ZZI   1 111
M  ZZM   2 3
M  ZZI   2 121
M  ZZM   3 7
M  ZZI   3 81
M  ZZM   4 10
M  ZZI   4 211
M  ZZM   5 1
M  ZZI   5 113
M  ZZM   6 1
M  ZZI   6 110
M  ZZM   7 1
M  ZZI   7 111
M  ZZM   8 1
M  ZZI   8 111
M  ZZM   9 1
M  ZZI   9 111
M  ZZM  10 3
M  ZZI  10 121
M  ZZM  11 7
M  ZZI  11 81
M  ZZM  12 10
M  ZZI  12 192
M  ZZM  13 1
M  ZZI  13 113
M  ZZM  14 3
M  ZZI  14 121
M  ZZM  15 7
M  ZZI  15 81
M  ZZM  16 10
M  ZZI  16 211
M  ZZM  17 1
M  ZZI  17 112
M  ZZM  18 37
M  ZZI  18 124
M  ZZM  19 37
M  ZZI  19 125
M  ZZM  20 37
M  ZZI  20 125
M  ZZM  21 37
M  ZZI  21 124
M  ZZM  22 63
M  ZZI  22 104
M  ZZM  23 64
M  ZZI  23 105
M  ZZM  24 1
M  ZZI  24 111
M  ZZM  25 66
M  ZZI  25 222
M  ZZM  26 63
M  ZZI  26 104
M  ZZM  27 44
M  ZZI  27 248
M  ZZM  28 37
M  ZZI  28 125
M  ZZM  29 37
M  ZZI  29 125
M  ZZM  30 1
M  ZZI  30 112
M  ZZM  31 1
M  ZZI  31 113
M  ZZM  32 6
M  ZZI  32 60
M  ZZM  33 1
M  ZZI  33 112
M  ZZM  34 5
M  ZZI  34 1
M  ZZM  35 5
M  ZZI  35 1
M  ZZM  36 5
M  ZZI  36 1
M  ZZM  37 28
M  ZZI  37 11
M  ZZM  38 5
M  ZZI  38 1
M  ZZM  39 5
M  ZZI  39 1
M  ZZM  40 5
M  ZZI  40 1
M  ZZM  41 5
M  ZZI  41 1
M  ZZM  42 5
M  ZZI  42 1
M  ZZM  43 5
M  ZZI  43 1
M  ZZM  44 5
M  ZZI  44 1
M  ZZM  45 5
M  ZZI  45 1
M  ZZM  46 5
M  ZZI  46 1
M  ZZM  47 5
M  ZZI  47 1
M  ZZM  48 5
M  ZZI  48 1
M  ZZM  49 28
M  ZZI  49 11
M  ZZM  50 5
M  ZZI  50 1
M  ZZM  51 5
M  ZZI  51 1
M  ZZM  52 5
M  ZZI  52 1
M  ZZM  53 5
M  ZZI  53 1
M  ZZM  54 5
M  ZZI  54 1
M  ZZM  55 5
M  ZZI  55 1
M  ZZM  56 5
M  ZZI  56 1
M  ZZM  57 5
M  ZZI  57 1
M  ZZM  58 5
M  ZZI  58 1
M  ZZM  59 5
M  ZZI  59 1
M  ZZM  60 5
M  ZZI  60 1
M  ZZM  61 5
M  ZZI  61 1
M  ZZM  62 5
M  ZZI  62 1
M  ZZM  63 21
M  ZZI  63 20
M  ZZM  64 5
M  ZZI  64 1
M  ZZM  65 5
M  ZZI  65 1
M  END
> <IX>
1

> <NAME>
VHL_2GQG_4.pdb

> <Score>
-7.344297

> <Natom>
65

> <Nflex>
8

> <Hbond>
-6.278535

> <Hphob>
-6.844446

> <VwInt>
-28.285306

> <Dsolv>
21.748276

> <SolEl>
23.752858

> <Eintl>
7.705648

> <RecConf>
ND

> <projPath>
VHL_maps/

> <NAME_>
VHL_2GQG_4.pdb

$$$$
