VHL_4QNQ_22.pdb
  MOLSOFT 04032206403D

 68 70  0  0  1  0  0  0  0  0999 V2000
   17.2969   -6.1423   -4.4303 C   0  0  0  0  0  0  0  0  0  0  0  0
   16.4697   -5.0133   -3.8726 C   0  0  0  0  0  0  0  0  0  0  0  0
   15.3618   -5.1996   -3.3931 O   0  0  0  0  0  0  0  0  0  0  0  0
   17.0629   -3.7728   -3.9896 N   0  0  0  0  0  0  0  0  0  0  0  0
   16.3393   -2.5359   -3.6802 C   0  0  1  0  0  0  0  0  0  0  0  0
   16.6511   -1.9480   -2.2698 C   0  0  0  0  0  0  0  0  0  0  0  0
   15.7192   -0.7598   -1.9847 C   0  0  0  0  0  0  0  0  0  0  0  0
   16.3981   -3.0072   -1.1828 C   0  0  0  0  0  0  0  0  0  0  0  0
   18.1018   -1.4625   -2.1368 C   0  0  0  0  0  0  0  0  0  0  0  0
   16.6617   -1.5806   -4.8489 C   0  0  0  0  0  0  0  0  0  0  0  0
   17.8215   -1.3416   -5.1660 O   0  0  0  0  0  0  0  0  0  0  0  0
   15.5773   -1.0466   -5.5481 N   0  0  0  0  0  0  0  0  0  0  0  0
   15.7636   -0.2795   -6.7736 C   0  0  2  0  0  0  0  0  0  0  0  0
   16.1074    1.1775   -6.4511 C   0  0  0  0  0  0  0  0  0  0  0  0
   15.2983    1.9591   -5.9695 O   0  0  0  0  0  0  0  0  0  0  0  0
   17.4340    1.4899   -6.6840 N   0  0  0  0  0  0  0  0  0  0  0  0
   18.0222    2.7591   -6.2674 C   0  0  1  0  0  0  0  0  0  0  0  0
   18.1658    2.8024   -4.7430 C   0  0  0  0  0  0  0  0  0  0  0  0
   19.3779    3.0319   -6.8947 C   0  0  0  0  0  0  0  0  0  0  0  0
   19.7751    4.3363   -7.1908 C   0  0  0  0  0  0  0  0  0  0  0  0
   21.0565    4.6159   -7.6469 C   0  0  0  0  0  0  0  0  0  0  0  0
   21.9795    3.5932   -7.8223 C   0  0  0  0  0  0  0  0  0  0  0  0
   23.3484    3.8515   -8.2380 C   0  0  0  0  0  0  0  0  0  0  0  0
   24.4565    4.2273   -7.4923 C   0  0  0  0  0  0  0  0  0  0  0  0
   24.4934    4.5123   -6.0399 C   0  0  0  0  0  0  0  0  0  0  0  0
   25.6360    4.3158   -8.2038 N   0  0  0  0  0  0  0  0  0  0  0  0
   25.4130    4.0271   -9.4664 C   0  0  0  0  0  0  0  0  0  0  0  0
   23.8023    3.6458   -9.8815 S   0  0  0  0  0  0  0  0  0  0  0  0
   21.5786    2.2957   -7.5546 C   0  0  0  0  0  0  0  0  0  0  0  0
   20.3055    2.0181   -7.1048 C   0  0  0  0  0  0  0  0  0  0  0  0
   14.4268   -0.3992   -7.4816 C   0  0  0  0  0  0  0  0  0  0  0  0
   13.4070   -0.5358   -6.3623 C   0  0  1  0  0  0  0  0  0  0  0  0
   12.2728   -1.2904   -6.7893 O   0  0  0  0  0  0  0  0  0  0  0  0
   14.1685   -1.2940   -5.2885 C   0  0  0  0  0  0  0  0  0  0  0  0
   18.2988   -5.8107   -4.7165 H   0  0  0  0  0  0  0  0  0  0  0  0
   16.7971   -6.5478   -5.3153 H   0  0  0  0  0  0  0  0  0  0  0  0
   17.3949   -6.9274   -3.6767 H   0  0  0  0  0  0  0  0  0  0  0  0
   18.0070   -3.7059   -4.3601 H   0  0  0  0  0  0  0  0  0  0  0  0
   15.2781   -2.7932   -3.7010 H   0  0  0  0  0  0  0  0  0  0  0  0
   15.8581    0.0418   -2.7175 H   0  0  0  0  0  0  0  0  0  0  0  0
   15.9112   -0.3286   -0.9966 H   0  0  0  0  0  0  0  0  0  0  0  0
   14.6645   -1.0497   -2.0234 H   0  0  0  0  0  0  0  0  0  0  0  0
   16.5274   -2.5896   -0.1791 H   0  0  0  0  0  0  0  0  0  0  0  0
   17.0900   -3.8508   -1.2645 H   0  0  0  0  0  0  0  0  0  0  0  0
   15.3785   -3.4031   -1.2370 H   0  0  0  0  0  0  0  0  0  0  0  0
   18.3278   -1.1534   -1.1114 H   0  0  0  0  0  0  0  0  0  0  0  0
   18.3086   -0.5997   -2.7766 H   0  0  0  0  0  0  0  0  0  0  0  0
   18.8088   -2.2508   -2.3977 H   0  0  0  0  0  0  0  0  0  0  0  0
   16.5629   -0.7245   -7.3779 H   0  0  0  0  0  0  0  0  0  0  0  0
   18.0279    0.7745   -7.0918 H   0  0  0  0  0  0  0  0  0  0  0  0
   17.3214    3.5427   -6.5784 H   0  0  0  0  0  0  0  0  0  0  0  0
   18.5962    3.7495   -4.4052 H   0  0  0  0  0  0  0  0  0  0  0  0
   18.8121    1.9978   -4.3781 H   0  0  0  0  0  0  0  0  0  0  0  0
   17.1948    2.6973   -4.2465 H   0  0  0  0  0  0  0  0  0  0  0  0
   19.0854    5.1614   -7.0389 H   0  0  0  0  0  0  0  0  0  0  0  0
   21.3361    5.6455   -7.8493 H   0  0  0  0  0  0  0  0  0  0  0  0
   23.9097    5.4072   -5.8065 H   0  0  0  0  0  0  0  0  0  0  0  0
   25.5189    4.6784   -5.6970 H   0  0  0  0  0  0  0  0  0  0  0  0
   24.0852    3.6758   -5.4674 H   0  0  0  0  0  0  0  0  0  0  0  0
   26.1986    4.0310  -10.2084 H   0  0  0  0  0  0  0  0  0  0  0  0
   22.2705    1.4734   -7.6844 H   0  0  0  0  0  0  0  0  0  0  0  0
   20.0565    0.9854   -6.8961 H   0  0  0  0  0  0  0  0  0  0  0  0
   14.2031    0.4428   -8.1454 H   0  0  0  0  0  0  0  0  0  0  0  0
   14.4315   -1.3093   -8.0889 H   0  0  0  0  0  0  0  0  0  0  0  0
   13.0720    0.4400   -5.9941 H   0  0  0  0  0  0  0  0  0  0  0  0
   11.8083   -0.7811   -7.4790 H   0  0  0  0  0  0  0  0  0  0  0  0
   13.9730   -2.3702   -5.3343 H   0  0  0  0  0  0  0  0  0  0  0  0
   13.9041   -0.9453   -4.2864 H   0  0  0  0  0  0  0  0  0  0  0  0
  1 35  1  0  0  0  0
  1 36  1  0  0  0  0
  1 37  1  0  0  0  0
  1  2  1  0  0  0  0
  2  3  2  0  0  0  0
  2  4  1  0  0  0  0
  4 38  1  0  0  0  0
  5  4  1  0  0  0  0
  5 39  1  0  0  0  0
  5  6  1  0  0  0  0
  5 10  1  0  0  0  0
  6  7  1  0  0  0  0
  6  8  1  0  0  0  0
  6  9  1  0  0  0  0
  7 40  1  0  0  0  0
  7 41  1  0  0  0  0
  7 42  1  0  0  0  0
  8 43  1  0  0  0  0
  8 44  1  0  0  0  0
  8 45  1  0  0  0  0
  9 46  1  0  0  0  0
  9 47  1  0  0  0  0
  9 48  1  0  0  0  0
 10 11  2  0  0  0  0
 10 12  1  0  0  0  0
 12 34  1  0  0  0  0
 13 12  1  0  0  0  0
 13 31  1  0  0  0  0
 13 49  1  0  0  0  0
 13 14  1  0  0  0  0
 14 15  2  0  0  0  0
 14 16  1  0  0  0  0
 16 50  1  0  0  0  0
 17 16  1  0  0  0  0
 17 51  1  0  0  0  0
 17 18  1  0  0  0  0
 17 19  1  0  0  0  0
 18 52  1  0  0  0  0
 18 53  1  0  0  0  0
 18 54  1  0  0  0  0
 19 20  1  0  0  0  0
 19 30  2  0  0  0  0
 20 55  1  0  0  0  0
 20 21  2  0  0  0  0
 21 56  1  0  0  0  0
 21 22  1  0  0  0  0
 22 29  2  0  0  0  0
 22 23  1  0  0  0  0
 23 24  2  0  0  0  0
 23 28  1  0  0  0  0
 24 25  1  0  0  0  0
 24 26  1  0  0  0  0
 25 57  1  0  0  0  0
 25 58  1  0  0  0  0
 25 59  1  0  0  0  0
 26 27  2  0  0  0  0
 27 60  1  0  0  0  0
 27 28  1  0  0  0  0
 29 61  1  0  0  0  0
 29 30  1  0  0  0  0
 30 62  1  0  0  0  0
 32 31  1  0  0  0  0
 31 63  1  0  0  0  0
 31 64  1  0  0  0  0
 32 34  1  0  0  0  0
 32 65  1  0  0  0  0
 32 33  1  0  0  0  0
 33 66  1  0  0  0  0
 34 67  1  0  0  0  0
 34 68  1  0  0  0  0
M  ZZC   1 c1
M  ZZC   2 c2
M  ZZC   3 o1
M  ZZC   4 n1
M  ZZC   5 c3
M  ZZC   6 c4
M  ZZC   7 c5
M  ZZC   8 c6
M  ZZC   9 c7
M  ZZC  10 c8
M  ZZC  11 o2
M  ZZC  12 n2
M  ZZC  13 c9
M  ZZC  14 c10
M  ZZC  15 o3
M  ZZC  16 n3
M  ZZC  17 c11
M  ZZC  18 c12
M  ZZC  19 c13
M  ZZC  20 c14
M  ZZC  21 c15
M  ZZC  22 c16
M  ZZC  23 c17
M  ZZC  24 c18
M  ZZC  25 c19
M  ZZC  26 n4
M  ZZC  27 c20
M  ZZC  28 s1
M  ZZC  29 c21
M  ZZC  30 c22
M  ZZC  31 c23
M  ZZC  32 c24
M  ZZC  33 o4
M  ZZC  34 c25
M  ZZC  35 h11
M  ZZC  36 h12
M  ZZC  37 h13
M  ZZC  38 h01
M  ZZC  39 h31
M  ZZC  40 h51
M  ZZC  41 h52
M  ZZC  42 h53
M  ZZC  43 h61
M  ZZC  44 h62
M  ZZC  45 h63
M  ZZC  46 h71
M  ZZC  47 h72
M  ZZC  48 h73
M  ZZC  49 h91
M  ZZC  50 h02
M  ZZC  51 h111
M  ZZC  52 h121
M  ZZC  53 h122
M  ZZC  54 h123
M  ZZC  55 h141
M  ZZC  56 h151
M  ZZC  57 h191
M  ZZC  58 h192
M  ZZC  59 h193
M  ZZC  60 h201
M  ZZC  61 h211
M  ZZC  62 h221
M  ZZC  63 h231
M  ZZC  64 h232
M  ZZC  65 h241
M  ZZC  66 h41
M  ZZC  67 h251
M  ZZC  68 h252
M  ZZM   1 1
M  ZZI   1 111
M  ZZM   2 3
M  ZZI   2 121
M  ZZM   3 7
M  ZZI   3 81
M  ZZM   4 10
M  ZZI   4 211
M  ZZM   5 1
M  ZZI   5 113
M  ZZM   6 1
M  ZZI   6 110
M  ZZM   7 1
M  ZZI   7 111
M  ZZM   8 1
M  ZZI   8 111
M  ZZM   9 1
M  ZZI   9 111
M  ZZM  10 3
M  ZZI  10 121
M  ZZM  11 7
M  ZZI  11 81
M  ZZM  12 10
M  ZZI  12 192
M  ZZM  13 1
M  ZZI  13 113
M  ZZM  14 3
M  ZZI  14 121
M  ZZM  15 7
M  ZZI  15 81
M  ZZM  16 10
M  ZZI  16 211
M  ZZM  17 1
M  ZZI  17 113
M  ZZM  18 1
M  ZZI  18 111
M  ZZM  19 37
M  ZZI  19 124
M  ZZM  20 37
M  ZZI  20 125
M  ZZM  21 37
M  ZZI  21 125
M  ZZM  22 37
M  ZZI  22 124
M  ZZM  23 63
M  ZZI  23 104
M  ZZM  24 64
M  ZZI  24 105
M  ZZM  25 1
M  ZZI  25 111
M  ZZM  26 66
M  ZZI  26 222
M  ZZM  27 63
M  ZZI  27 104
M  ZZM  28 44
M  ZZI  28 248
M  ZZM  29 37
M  ZZI  29 125
M  ZZM  30 37
M  ZZI  30 125
M  ZZM  31 1
M  ZZI  31 112
M  ZZM  32 1
M  ZZI  32 113
M  ZZM  33 6
M  ZZI  33 60
M  ZZM  34 1
M  ZZI  34 112
M  ZZM  35 5
M  ZZI  35 1
M  ZZM  36 5
M  ZZI  36 1
M  ZZM  37 5
M  ZZI  37 1
M  ZZM  38 28
M  ZZI  38 11
M  ZZM  39 5
M  ZZI  39 1
M  ZZM  40 5
M  ZZI  40 1
M  ZZM  41 5
M  ZZI  41 1
M  ZZM  42 5
M  ZZI  42 1
M  ZZM  43 5
M  ZZI  43 1
M  ZZM  44 5
M  ZZI  44 1
M  ZZM  45 5
M  ZZI  45 1
M  ZZM  46 5
M  ZZI  46 1
M  ZZM  47 5
M  ZZI  47 1
M  ZZM  48 5
M  ZZI  48 1
M  ZZM  49 5
M  ZZI  49 1
M  ZZM  50 28
M  ZZI  50 11
M  ZZM  51 5
M  ZZI  51 1
M  ZZM  52 5
M  ZZI  52 1
M  ZZM  53 5
M  ZZI  53 1
M  ZZM  54 5
M  ZZI  54 1
M  ZZM  55 5
M  ZZI  55 1
M  ZZM  56 5
M  ZZI  56 1
M  ZZM  57 5
M  ZZI  57 1
M  ZZM  58 5
M  ZZI  58 1
M  ZZM  59 5
M  ZZI  59 1
M  ZZM  60 5
M  ZZI  60 1
M  ZZM  61 5
M  ZZI  61 1
M  ZZM  62 5
M  ZZI  62 1
M  ZZM  63 5
M  ZZI  63 1
M  ZZM  64 5
M  ZZI  64 1
M  ZZM  65 5
M  ZZI  65 1
M  ZZM  66 21
M  ZZI  66 20
M  ZZM  67 5
M  ZZI  67 1
M  ZZM  68 5
M  ZZI  68 1
M  END
> <IX>
1

> <NAME>
VHL_4QNQ_22.pdb

> <Score>
-17.089423

> <Natom>
68

> <Nflex>
8

> <Hbond>
-6.511914

> <Hphob>
-6.237241

> <VwInt>
-32.041736

> <Dsolv>
18.313577

> <SolEl>
21.302414

> <Eintl>
5.019386

> <RecConf>
ND

> <projPath>
VHL_maps/

> <NAME_>
VHL_4QNQ_22.pdb

$$$$
