VHL_5GMP_6.pdb
  MOLSOFT 04032206403D

 65 67  0  0  1  0  0  0  0  0999 V2000
   11.7154   -0.1096   -6.5577 C   0  0  0  0  0  0  0  0  0  0  0  0
   13.0333   -0.8073   -6.3937 C   0  0  0  0  0  0  0  0  0  0  0  0
   13.2464   -1.9068   -6.8747 O   0  0  0  0  0  0  0  0  0  0  0  0
   13.9381   -0.0900   -5.6497 N   0  0  0  0  0  0  0  0  0  0  0  0
   15.2753   -0.6021   -5.3414 C   0  0  1  0  0  0  0  0  0  0  0  0
   16.3430    0.5297   -5.4108 C   0  0  0  0  0  0  0  0  0  0  0  0
   16.0758    1.6726   -4.4149 C   0  0  0  0  0  0  0  0  0  0  0  0
   17.7364   -0.0336   -5.1231 C   0  0  0  0  0  0  0  0  0  0  0  0
   16.3623    1.1173   -6.8340 C   0  0  0  0  0  0  0  0  0  0  0  0
   15.1372   -1.2938   -3.9703 C   0  0  0  0  0  0  0  0  0  0  0  0
   14.5380   -0.7477   -3.0517 O   0  0  0  0  0  0  0  0  0  0  0  0
   15.6851   -2.5714   -3.8129 N   0  0  0  0  0  0  0  0  0  0  0  0
   15.4646   -3.3199   -2.5841 C   0  0  2  0  0  0  0  0  0  0  0  0
   16.4840   -2.9412   -1.5057 C   0  0  0  0  0  0  0  0  0  0  0  0
   17.5945   -2.4963   -1.7624 O   0  0  0  0  0  0  0  0  0  0  0  0
   16.0515   -3.2076   -0.2202 N   0  0  0  0  0  0  0  0  0  0  0  0
   16.8697   -2.8853    0.9333 C   0  0  0  0  0  0  0  0  0  0  0  0
   16.3814   -3.5709    2.1826 C   0  0  0  0  0  0  0  0  0  0  0  0
   17.0572   -4.6713    2.6975 C   0  0  0  0  0  0  0  0  0  0  0  0
   16.5776   -5.3398    3.8101 C   0  0  0  0  0  0  0  0  0  0  0  0
   15.4155   -4.9248    4.4568 C   0  0  0  0  0  0  0  0  0  0  0  0
   14.9000   -5.6537    5.6148 C   0  0  0  0  0  0  0  0  0  0  0  0
   13.6223   -6.1183    5.9194 C   0  0  0  0  0  0  0  0  0  0  0  0
   12.3903   -6.0113    5.0995 C   0  0  0  0  0  0  0  0  0  0  0  0
   13.5135   -6.7817    7.1259 N   0  0  0  0  0  0  0  0  0  0  0  0
   14.6817   -6.8177    7.7238 C   0  0  0  0  0  0  0  0  0  0  0  0
   15.9729   -6.0732    6.8970 S   0  0  0  0  0  0  0  0  0  0  0  0
   14.7591   -3.8027    3.9566 C   0  0  0  0  0  0  0  0  0  0  0  0
   15.2290   -3.1413    2.8334 C   0  0  0  0  0  0  0  0  0  0  0  0
   15.6188   -4.7709   -3.0025 C   0  0  0  0  0  0  0  0  0  0  0  0
   16.6572   -4.7250   -4.1127 C   0  0  1  0  0  0  0  0  0  0  0  0
   16.4569   -5.7974   -5.0367 O   0  0  0  0  0  0  0  0  0  0  0  0
   16.4598   -3.3569   -4.7653 C   0  0  0  0  0  0  0  0  0  0  0  0
   11.8741    0.8782   -6.9959 H   0  0  0  0  0  0  0  0  0  0  0  0
   11.2321   -0.0054   -5.5828 H   0  0  0  0  0  0  0  0  0  0  0  0
   11.0704   -0.6937   -7.2180 H   0  0  0  0  0  0  0  0  0  0  0  0
   13.6207    0.7571   -5.1917 H   0  0  0  0  0  0  0  0  0  0  0  0
   15.5112   -1.3548   -6.0987 H   0  0  0  0  0  0  0  0  0  0  0  0
   16.8384    2.4536   -4.5001 H   0  0  0  0  0  0  0  0  0  0  0  0
   16.0964    1.3239   -3.3784 H   0  0  0  0  0  0  0  0  0  0  0  0
   15.1098    2.1566   -4.5859 H   0  0  0  0  0  0  0  0  0  0  0  0
   17.8122   -0.4420   -4.1106 H   0  0  0  0  0  0  0  0  0  0  0  0
   18.5072    0.7384   -5.2180 H   0  0  0  0  0  0  0  0  0  0  0  0
   17.9854   -0.8292   -5.8302 H   0  0  0  0  0  0  0  0  0  0  0  0
   17.1557    1.8630   -6.9491 H   0  0  0  0  0  0  0  0  0  0  0  0
   15.4196    1.6129   -7.0869 H   0  0  0  0  0  0  0  0  0  0  0  0
   16.5356    0.3406   -7.5869 H   0  0  0  0  0  0  0  0  0  0  0  0
   14.4558   -3.1219   -2.2028 H   0  0  0  0  0  0  0  0  0  0  0  0
   15.1125   -3.5575   -0.0643 H   0  0  0  0  0  0  0  0  0  0  0  0
   17.9090   -3.1578    0.7174 H   0  0  0  0  0  0  0  0  0  0  0  0
   16.8507   -1.7983    1.0665 H   0  0  0  0  0  0  0  0  0  0  0  0
   17.9612   -5.0357    2.2172 H   0  0  0  0  0  0  0  0  0  0  0  0
   17.1209   -6.2140    4.1558 H   0  0  0  0  0  0  0  0  0  0  0  0
   11.5043   -6.2577    5.6917 H   0  0  0  0  0  0  0  0  0  0  0  0
   12.4267   -6.7079    4.2589 H   0  0  0  0  0  0  0  0  0  0  0  0
   12.2444   -5.0036    4.7055 H   0  0  0  0  0  0  0  0  0  0  0  0
   14.8256   -7.2921    8.6842 H   0  0  0  0  0  0  0  0  0  0  0  0
   13.8663   -3.4231    4.4430 H   0  0  0  0  0  0  0  0  0  0  0  0
   14.6815   -2.2792    2.4624 H   0  0  0  0  0  0  0  0  0  0  0  0
   15.9211   -5.4343   -2.1874 H   0  0  0  0  0  0  0  0  0  0  0  0
   14.6699   -5.1567   -3.3884 H   0  0  0  0  0  0  0  0  0  0  0  0
   17.6689   -4.8068   -3.7060 H   0  0  0  0  0  0  0  0  0  0  0  0
   16.3799   -6.6234   -4.5247 H   0  0  0  0  0  0  0  0  0  0  0  0
   15.9555   -3.4044   -5.7319 H   0  0  0  0  0  0  0  0  0  0  0  0
   17.4232   -2.8666   -4.9251 H   0  0  0  0  0  0  0  0  0  0  0  0
  1 34  1  0  0  0  0
  1 35  1  0  0  0  0
  1 36  1  0  0  0  0
  1  2  1  0  0  0  0
  2  3  2  0  0  0  0
  2  4  1  0  0  0  0
  4 37  1  0  0  0  0
  5  4  1  0  0  0  0
  5 38  1  0  0  0  0
  5  6  1  0  0  0  0
  5 10  1  0  0  0  0
  6  7  1  0  0  0  0
  6  8  1  0  0  0  0
  6  9  1  0  0  0  0
  7 39  1  0  0  0  0
  7 40  1  0  0  0  0
  7 41  1  0  0  0  0
  8 42  1  0  0  0  0
  8 43  1  0  0  0  0
  8 44  1  0  0  0  0
  9 45  1  0  0  0  0
  9 46  1  0  0  0  0
  9 47  1  0  0  0  0
 10 11  2  0  0  0  0
 10 12  1  0  0  0  0
 12 33  1  0  0  0  0
 13 12  1  0  0  0  0
 13 30  1  0  0  0  0
 13 48  1  0  0  0  0
 13 14  1  0  0  0  0
 14 15  2  0  0  0  0
 14 16  1  0  0  0  0
 16 49  1  0  0  0  0
 16 17  1  0  0  0  0
 17 50  1  0  0  0  0
 17 51  1  0  0  0  0
 17 18  1  0  0  0  0
 18 19  1  0  0  0  0
 18 29  2  0  0  0  0
 19 52  1  0  0  0  0
 19 20  2  0  0  0  0
 20 53  1  0  0  0  0
 20 21  1  0  0  0  0
 21 28  2  0  0  0  0
 21 22  1  0  0  0  0
 22 23  2  0  0  0  0
 22 27  1  0  0  0  0
 23 24  1  0  0  0  0
 23 25  1  0  0  0  0
 24 54  1  0  0  0  0
 24 55  1  0  0  0  0
 24 56  1  0  0  0  0
 25 26  2  0  0  0  0
 26 57  1  0  0  0  0
 26 27  1  0  0  0  0
 28 58  1  0  0  0  0
 28 29  1  0  0  0  0
 29 59  1  0  0  0  0
 31 30  1  0  0  0  0
 30 60  1  0  0  0  0
 30 61  1  0  0  0  0
 31 33  1  0  0  0  0
 31 62  1  0  0  0  0
 31 32  1  0  0  0  0
 32 63  1  0  0  0  0
 33 64  1  0  0  0  0
 33 65  1  0  0  0  0
M  ZZC   1 c1
M  ZZC   2 c2
M  ZZC   3 o1
M  ZZC   4 n1
M  ZZC   5 c3
M  ZZC   6 c4
M  ZZC   7 c5
M  ZZC   8 c6
M  ZZC   9 c7
M  ZZC  10 c8
M  ZZC  11 o2
M  ZZC  12 n2
M  ZZC  13 c9
M  ZZC  14 c10
M  ZZC  15 o3
M  ZZC  16 n3
M  ZZC  17 c11
M  ZZC  18 c12
M  ZZC  19 c13
M  ZZC  20 c14
M  ZZC  21 c15
M  ZZC  22 c16
M  ZZC  23 c17
M  ZZC  24 c18
M  ZZC  25 n4
M  ZZC  26 c19
M  ZZC  27 s1
M  ZZC  28 c20
M  ZZC  29 c21
M  ZZC  30 c22
M  ZZC  31 c23
M  ZZC  32 o4
M  ZZC  33 c24
M  ZZC  34 h11
M  ZZC  35 h12
M  ZZC  36 h13
M  ZZC  37 h01
M  ZZC  38 h31
M  ZZC  39 h51
M  ZZC  40 h52
M  ZZC  41 h53
M  ZZC  42 h61
M  ZZC  43 h62
M  ZZC  44 h63
M  ZZC  45 h71
M  ZZC  46 h72
M  ZZC  47 h73
M  ZZC  48 h91
M  ZZC  49 h02
M  ZZC  50 h111
M  ZZC  51 h112
M  ZZC  52 h131
M  ZZC  53 h141
M  ZZC  54 h181
M  ZZC  55 h182
M  ZZC  56 h183
M  ZZC  57 h191
M  ZZC  58 h201
M  ZZC  59 h211
M  ZZC  60 h221
M  ZZC  61 h222
M  ZZC  62 h231
M  ZZC  63 h41
M  ZZC  64 h241
M  ZZC  65 h242
M  ZZM   1 1
M  ZZI   1 111
M  ZZM   2 3
M  ZZI   2 121
M  ZZM   3 7
M  ZZI   3 81
M  ZZM   4 10
M  ZZI   4 211
M  ZZM   5 1
M  ZZI   5 113
M  ZZM   6 1
M  ZZI   6 110
M  ZZM   7 1
M  ZZI   7 111
M  ZZM   8 1
M  ZZI   8 111
M  ZZM   9 1
M  ZZI   9 111
M  ZZM  10 3
M  ZZI  10 121
M  ZZM  11 7
M  ZZI  11 81
M  ZZM  12 10
M  ZZI  12 192
M  ZZM  13 1
M  ZZI  13 113
M  ZZM  14 3
M  ZZI  14 121
M  ZZM  15 7
M  ZZI  15 81
M  ZZM  16 10
M  ZZI  16 211
M  ZZM  17 1
M  ZZI  17 112
M  ZZM  18 37
M  ZZI  18 124
M  ZZM  19 37
M  ZZI  19 125
M  ZZM  20 37
M  ZZI  20 125
M  ZZM  21 37
M  ZZI  21 124
M  ZZM  22 63
M  ZZI  22 104
M  ZZM  23 64
M  ZZI  23 105
M  ZZM  24 1
M  ZZI  24 111
M  ZZM  25 66
M  ZZI  25 222
M  ZZM  26 63
M  ZZI  26 104
M  ZZM  27 44
M  ZZI  27 248
M  ZZM  28 37
M  ZZI  28 125
M  ZZM  29 37
M  ZZI  29 125
M  ZZM  30 1
M  ZZI  30 112
M  ZZM  31 1
M  ZZI  31 113
M  ZZM  32 6
M  ZZI  32 60
M  ZZM  33 1
M  ZZI  33 112
M  ZZM  34 5
M  ZZI  34 1
M  ZZM  35 5
M  ZZI  35 1
M  ZZM  36 5
M  ZZI  36 1
M  ZZM  37 28
M  ZZI  37 11
M  ZZM  38 5
M  ZZI  38 1
M  ZZM  39 5
M  ZZI  39 1
M  ZZM  40 5
M  ZZI  40 1
M  ZZM  41 5
M  ZZI  41 1
M  ZZM  42 5
M  ZZI  42 1
M  ZZM  43 5
M  ZZI  43 1
M  ZZM  44 5
M  ZZI  44 1
M  ZZM  45 5
M  ZZI  45 1
M  ZZM  46 5
M  ZZI  46 1
M  ZZM  47 5
M  ZZI  47 1
M  ZZM  48 5
M  ZZI  48 1
M  ZZM  49 28
M  ZZI  49 11
M  ZZM  50 5
M  ZZI  50 1
M  ZZM  51 5
M  ZZI  51 1
M  ZZM  52 5
M  ZZI  52 1
M  ZZM  53 5
M  ZZI  53 1
M  ZZM  54 5
M  ZZI  54 1
M  ZZM  55 5
M  ZZI  55 1
M  ZZM  56 5
M  ZZI  56 1
M  ZZM  57 5
M  ZZI  57 1
M  ZZM  58 5
M  ZZI  58 1
M  ZZM  59 5
M  ZZI  59 1
M  ZZM  60 5
M  ZZI  60 1
M  ZZM  61 5
M  ZZI  61 1
M  ZZM  62 5
M  ZZI  62 1
M  ZZM  63 21
M  ZZI  63 20
M  ZZM  64 5
M  ZZI  64 1
M  ZZM  65 5
M  ZZI  65 1
M  END
> <IX>
1

> <NAME>
VHL_5GMP_6.pdb

> <Score>
-14.142176

> <Natom>
65

> <Nflex>
8

> <Hbond>
-2.954609

> <Hphob>
-6.17009

> <VwInt>
-27.979665

> <Dsolv>
16.775064

> <SolEl>
9.913558

> <Eintl>
2.537274

> <RecConf>
ND

> <projPath>
VHL_maps/

> <NAME_>
VHL_5GMP_6.pdb

$$$$
