VHL_5G0I_12.pdb
  MOLSOFT 04032206403D

 65 67  0  0  1  0  0  0  0  0999 V2000
   18.3302   -7.0835   -5.3188 C   0  0  0  0  0  0  0  0  0  0  0  0
   17.1748   -6.1221   -5.2869 C   0  0  0  0  0  0  0  0  0  0  0  0
   16.0760   -6.4507   -5.7039 O   0  0  0  0  0  0  0  0  0  0  0  0
   17.4850   -4.8966   -4.7295 N   0  0  0  0  0  0  0  0  0  0  0  0
   16.5367   -3.7826   -4.6321 C   0  0  1  0  0  0  0  0  0  0  0  0
   15.9017   -3.6282   -3.2121 C   0  0  0  0  0  0  0  0  0  0  0  0
   14.6894   -2.6849   -3.2647 C   0  0  0  0  0  0  0  0  0  0  0  0
   15.4001   -4.9831   -2.6907 C   0  0  0  0  0  0  0  0  0  0  0  0
   16.8995   -3.0677   -2.1866 C   0  0  0  0  0  0  0  0  0  0  0  0
   17.2704   -2.5156   -5.1067 C   0  0  0  0  0  0  0  0  0  0  0  0
   18.4315   -2.3011   -4.7896 O   0  0  0  0  0  0  0  0  0  0  0  0
   16.5555   -1.5722   -5.8448 N   0  0  0  0  0  0  0  0  0  0  0  0
   17.1735   -0.3052   -6.2071 C   0  0  2  0  0  0  0  0  0  0  0  0
   17.4905    0.6358   -5.0524 C   0  0  0  0  0  0  0  0  0  0  0  0
   16.8733    0.6408   -3.9960 O   0  0  0  0  0  0  0  0  0  0  0  0
   18.4513    1.5666   -5.4068 N   0  0  0  0  0  0  0  0  0  0  0  0
   18.5301    2.8565   -4.7587 C   0  0  0  0  0  0  0  0  0  0  0  0
   17.5143    3.7552   -5.4126 C   0  0  0  0  0  0  0  0  0  0  0  0
   16.2050    3.7740   -4.9433 C   0  0  0  0  0  0  0  0  0  0  0  0
   15.2072    4.3871   -5.6729 C   0  0  0  0  0  0  0  0  0  0  0  0
   15.5002    5.0140   -6.8757 C   0  0  0  0  0  0  0  0  0  0  0  0
   14.4166    5.5456   -7.6763 C   0  0  0  0  0  0  0  0  0  0  0  0
   13.4530    4.8782   -8.4190 C   0  0  0  0  0  0  0  0  0  0  0  0
   13.3642    3.4183   -8.6595 C   0  0  0  0  0  0  0  0  0  0  0  0
   12.4765    5.6886   -8.9552 N   0  0  0  0  0  0  0  0  0  0  0  0
   12.7585    6.9435   -8.6820 C   0  0  0  0  0  0  0  0  0  0  0  0
   14.1566    7.2378   -7.7555 S   0  0  0  0  0  0  0  0  0  0  0  0
   16.8190    5.0725   -7.3096 C   0  0  0  0  0  0  0  0  0  0  0  0
   17.8166    4.4381   -6.5882 C   0  0  0  0  0  0  0  0  0  0  0  0
   16.1646    0.3798   -7.1251 C   0  0  0  0  0  0  0  0  0  0  0  0
   15.4346   -0.7769   -7.7690 C   0  0  1  0  0  0  0  0  0  0  0  0
   16.1754   -1.2450   -8.9052 O   0  0  0  0  0  0  0  0  0  0  0  0
   15.3879   -1.8294   -6.6671 C   0  0  0  0  0  0  0  0  0  0  0  0
   19.2888   -6.5636   -5.2320 H   0  0  0  0  0  0  0  0  0  0  0  0
   18.3190   -7.6250   -6.2683 H   0  0  0  0  0  0  0  0  0  0  0  0
   18.2223   -7.7933   -4.4958 H   0  0  0  0  0  0  0  0  0  0  0  0
   18.4304   -4.7433   -4.3986 H   0  0  0  0  0  0  0  0  0  0  0  0
   15.7527   -4.0054   -5.3422 H   0  0  0  0  0  0  0  0  0  0  0  0
   14.9725   -1.6670   -3.5459 H   0  0  0  0  0  0  0  0  0  0  0  0
   14.1934   -2.6160   -2.2911 H   0  0  0  0  0  0  0  0  0  0  0  0
   13.9414   -3.0351   -3.9829 H   0  0  0  0  0  0  0  0  0  0  0  0
   14.9119   -4.8835   -1.7164 H   0  0  0  0  0  0  0  0  0  0  0  0
   16.2136   -5.7024   -2.5646 H   0  0  0  0  0  0  0  0  0  0  0  0
   14.6688   -5.4212   -3.3721 H   0  0  0  0  0  0  0  0  0  0  0  0
   16.4697   -3.0514   -1.1798 H   0  0  0  0  0  0  0  0  0  0  0  0
   17.1970   -2.0410   -2.4199 H   0  0  0  0  0  0  0  0  0  0  0  0
   17.8075   -3.6705   -2.1395 H   0  0  0  0  0  0  0  0  0  0  0  0
   18.0987   -0.5313   -6.7337 H   0  0  0  0  0  0  0  0  0  0  0  0
   18.9685    1.4449   -6.2717 H   0  0  0  0  0  0  0  0  0  0  0  0
   18.3368    2.7517   -3.6855 H   0  0  0  0  0  0  0  0  0  0  0  0
   19.5456    3.2455   -4.8867 H   0  0  0  0  0  0  0  0  0  0  0  0
   15.9391    3.2455   -4.0319 H   0  0  0  0  0  0  0  0  0  0  0  0
   14.1833    4.3428   -5.3107 H   0  0  0  0  0  0  0  0  0  0  0  0
   12.5236    3.1847   -9.3187 H   0  0  0  0  0  0  0  0  0  0  0  0
   13.2075    2.8733   -7.7243 H   0  0  0  0  0  0  0  0  0  0  0  0
   14.2795    3.0381   -9.1205 H   0  0  0  0  0  0  0  0  0  0  0  0
   12.1430    7.7626   -9.0095 H   0  0  0  0  0  0  0  0  0  0  0  0
   17.0711    5.5751   -8.2392 H   0  0  0  0  0  0  0  0  0  0  0  0
   18.8299    4.4365   -6.9793 H   0  0  0  0  0  0  0  0  0  0  0  0
   15.4577    0.9860   -6.5466 H   0  0  0  0  0  0  0  0  0  0  0  0
   16.6560    1.0341   -7.8534 H   0  0  0  0  0  0  0  0  0  0  0  0
   14.4354   -0.4970   -8.1081 H   0  0  0  0  0  0  0  0  0  0  0  0
   17.1222   -1.1905   -8.6796 H   0  0  0  0  0  0  0  0  0  0  0  0
   15.4236   -2.8424   -7.0744 H   0  0  0  0  0  0  0  0  0  0  0  0
   14.5026   -1.7051   -6.0363 H   0  0  0  0  0  0  0  0  0  0  0  0
  1 34  1  0  0  0  0
  1 35  1  0  0  0  0
  1 36  1  0  0  0  0
  1  2  1  0  0  0  0
  2  3  2  0  0  0  0
  2  4  1  0  0  0  0
  4 37  1  0  0  0  0
  5  4  1  0  0  0  0
  5 38  1  0  0  0  0
  5  6  1  0  0  0  0
  5 10  1  0  0  0  0
  6  7  1  0  0  0  0
  6  8  1  0  0  0  0
  6  9  1  0  0  0  0
  7 39  1  0  0  0  0
  7 40  1  0  0  0  0
  7 41  1  0  0  0  0
  8 42  1  0  0  0  0
  8 43  1  0  0  0  0
  8 44  1  0  0  0  0
  9 45  1  0  0  0  0
  9 46  1  0  0  0  0
  9 47  1  0  0  0  0
 10 11  2  0  0  0  0
 10 12  1  0  0  0  0
 12 33  1  0  0  0  0
 13 12  1  0  0  0  0
 13 30  1  0  0  0  0
 13 48  1  0  0  0  0
 13 14  1  0  0  0  0
 14 15  2  0  0  0  0
 14 16  1  0  0  0  0
 16 49  1  0  0  0  0
 16 17  1  0  0  0  0
 17 50  1  0  0  0  0
 17 51  1  0  0  0  0
 17 18  1  0  0  0  0
 18 19  1  0  0  0  0
 18 29  2  0  0  0  0
 19 52  1  0  0  0  0
 19 20  2  0  0  0  0
 20 53  1  0  0  0  0
 20 21  1  0  0  0  0
 21 28  2  0  0  0  0
 21 22  1  0  0  0  0
 22 23  2  0  0  0  0
 22 27  1  0  0  0  0
 23 24  1  0  0  0  0
 23 25  1  0  0  0  0
 24 54  1  0  0  0  0
 24 55  1  0  0  0  0
 24 56  1  0  0  0  0
 25 26  2  0  0  0  0
 26 57  1  0  0  0  0
 26 27  1  0  0  0  0
 28 58  1  0  0  0  0
 28 29  1  0  0  0  0
 29 59  1  0  0  0  0
 31 30  1  0  0  0  0
 30 60  1  0  0  0  0
 30 61  1  0  0  0  0
 31 33  1  0  0  0  0
 31 62  1  0  0  0  0
 31 32  1  0  0  0  0
 32 63  1  0  0  0  0
 33 64  1  0  0  0  0
 33 65  1  0  0  0  0
M  ZZC   1 c1
M  ZZC   2 c2
M  ZZC   3 o1
M  ZZC   4 n1
M  ZZC   5 c3
M  ZZC   6 c4
M  ZZC   7 c5
M  ZZC   8 c6
M  ZZC   9 c7
M  ZZC  10 c8
M  ZZC  11 o2
M  ZZC  12 n2
M  ZZC  13 c9
M  ZZC  14 c10
M  ZZC  15 o3
M  ZZC  16 n3
M  ZZC  17 c11
M  ZZC  18 c12
M  ZZC  19 c13
M  ZZC  20 c14
M  ZZC  21 c15
M  ZZC  22 c16
M  ZZC  23 c17
M  ZZC  24 c18
M  ZZC  25 n4
M  ZZC  26 c19
M  ZZC  27 s1
M  ZZC  28 c20
M  ZZC  29 c21
M  ZZC  30 c22
M  ZZC  31 c23
M  ZZC  32 o4
M  ZZC  33 c24
M  ZZC  34 h11
M  ZZC  35 h12
M  ZZC  36 h13
M  ZZC  37 h01
M  ZZC  38 h31
M  ZZC  39 h51
M  ZZC  40 h52
M  ZZC  41 h53
M  ZZC  42 h61
M  ZZC  43 h62
M  ZZC  44 h63
M  ZZC  45 h71
M  ZZC  46 h72
M  ZZC  47 h73
M  ZZC  48 h91
M  ZZC  49 h02
M  ZZC  50 h111
M  ZZC  51 h112
M  ZZC  52 h131
M  ZZC  53 h141
M  ZZC  54 h181
M  ZZC  55 h182
M  ZZC  56 h183
M  ZZC  57 h191
M  ZZC  58 h201
M  ZZC  59 h211
M  ZZC  60 h221
M  ZZC  61 h222
M  ZZC  62 h231
M  ZZC  63 h41
M  ZZC  64 h241
M  ZZC  65 h242
M  ZZM   1 1
M  ZZI   1 111
M  ZZM   2 3
M  ZZI   2 121
M  ZZM   3 7
M  ZZI   3 81
M  ZZM   4 10
M  ZZI   4 211
M  ZZM   5 1
M  ZZI   5 113
M  ZZM   6 1
M  ZZI   6 110
M  ZZM   7 1
M  ZZI   7 111
M  ZZM   8 1
M  ZZI   8 111
M  ZZM   9 1
M  ZZI   9 111
M  ZZM  10 3
M  ZZI  10 121
M  ZZM  11 7
M  ZZI  11 81
M  ZZM  12 10
M  ZZI  12 192
M  ZZM  13 1
M  ZZI  13 113
M  ZZM  14 3
M  ZZI  14 121
M  ZZM  15 7
M  ZZI  15 81
M  ZZM  16 10
M  ZZI  16 211
M  ZZM  17 1
M  ZZI  17 112
M  ZZM  18 37
M  ZZI  18 124
M  ZZM  19 37
M  ZZI  19 125
M  ZZM  20 37
M  ZZI  20 125
M  ZZM  21 37
M  ZZI  21 124
M  ZZM  22 63
M  ZZI  22 104
M  ZZM  23 64
M  ZZI  23 105
M  ZZM  24 1
M  ZZI  24 111
M  ZZM  25 66
M  ZZI  25 222
M  ZZM  26 63
M  ZZI  26 104
M  ZZM  27 44
M  ZZI  27 248
M  ZZM  28 37
M  ZZI  28 125
M  ZZM  29 37
M  ZZI  29 125
M  ZZM  30 1
M  ZZI  30 112
M  ZZM  31 1
M  ZZI  31 113
M  ZZM  32 6
M  ZZI  32 60
M  ZZM  33 1
M  ZZI  33 112
M  ZZM  34 5
M  ZZI  34 1
M  ZZM  35 5
M  ZZI  35 1
M  ZZM  36 5
M  ZZI  36 1
M  ZZM  37 28
M  ZZI  37 11
M  ZZM  38 5
M  ZZI  38 1
M  ZZM  39 5
M  ZZI  39 1
M  ZZM  40 5
M  ZZI  40 1
M  ZZM  41 5
M  ZZI  41 1
M  ZZM  42 5
M  ZZI  42 1
M  ZZM  43 5
M  ZZI  43 1
M  ZZM  44 5
M  ZZI  44 1
M  ZZM  45 5
M  ZZI  45 1
M  ZZM  46 5
M  ZZI  46 1
M  ZZM  47 5
M  ZZI  47 1
M  ZZM  48 5
M  ZZI  48 1
M  ZZM  49 28
M  ZZI  49 11
M  ZZM  50 5
M  ZZI  50 1
M  ZZM  51 5
M  ZZI  51 1
M  ZZM  52 5
M  ZZI  52 1
M  ZZM  53 5
M  ZZI  53 1
M  ZZM  54 5
M  ZZI  54 1
M  ZZM  55 5
M  ZZI  55 1
M  ZZM  56 5
M  ZZI  56 1
M  ZZM  57 5
M  ZZI  57 1
M  ZZM  58 5
M  ZZI  58 1
M  ZZM  59 5
M  ZZI  59 1
M  ZZM  60 5
M  ZZI  60 1
M  ZZM  61 5
M  ZZI  61 1
M  ZZM  62 5
M  ZZI  62 1
M  ZZM  63 21
M  ZZI  63 20
M  ZZM  64 5
M  ZZI  64 1
M  ZZM  65 5
M  ZZI  65 1
M  END
> <IX>
1

> <NAME>
VHL_5G0I_12.pdb

> <Score>
-25.242719

> <Natom>
65

> <Nflex>
8

> <Hbond>
-9.800159

> <Hphob>
-6.658316

> <VwInt>
-31.325267

> <Dsolv>
20.640757

> <SolEl>
15.718767

> <Eintl>
7.805114

> <RecConf>
ND

> <projPath>
VHL_maps/

> <NAME_>
VHL_5G0I_12.pdb

$$$$
