VHL_5T8E_25.pdb
  MOLSOFT 04032206413D

 65 67  0  0  1  0  0  0  0  0999 V2000
   17.2901   -6.2385   -4.3770 C   0  0  0  0  0  0  0  0  0  0  0  0
   16.4581   -5.1338   -3.7783 C   0  0  0  0  0  0  0  0  0  0  0  0
   15.3584   -5.3402   -3.2886 O   0  0  0  0  0  0  0  0  0  0  0  0
   17.0372   -3.8867   -3.8738 N   0  0  0  0  0  0  0  0  0  0  0  0
   16.2976   -2.6607   -3.5609 C   0  0  1  0  0  0  0  0  0  0  0  0
   16.5696   -2.0906   -2.1352 C   0  0  0  0  0  0  0  0  0  0  0  0
   18.0048   -1.5676   -1.9723 C   0  0  0  0  0  0  0  0  0  0  0  0
   15.5993   -0.9340   -1.8481 C   0  0  0  0  0  0  0  0  0  0  0  0
   16.3262   -3.1720   -1.0687 C   0  0  0  0  0  0  0  0  0  0  0  0
   16.6604   -1.6939   -4.7061 C   0  0  0  0  0  0  0  0  0  0  0  0
   17.8308   -1.4580   -4.9830 O   0  0  0  0  0  0  0  0  0  0  0  0
   15.6055   -1.1502   -5.4379 N   0  0  0  0  0  0  0  0  0  0  0  0
   15.8484   -0.3735   -6.6446 C   0  0  2  0  0  0  0  0  0  0  0  0
   16.1880    1.0812   -6.3096 C   0  0  0  0  0  0  0  0  0  0  0  0
   15.5167    1.7612   -5.5450 O   0  0  0  0  0  0  0  0  0  0  0  0
   17.3099    1.5514   -6.9647 N   0  0  0  0  0  0  0  0  0  0  0  0
   17.7929    2.9063   -6.7551 C   0  0  0  0  0  0  0  0  0  0  0  0
   19.2284    3.1270   -7.1704 C   0  0  0  0  0  0  0  0  0  0  0  0
   20.1621    2.0972   -7.1607 C   0  0  0  0  0  0  0  0  0  0  0  0
   21.4797    2.3289   -7.5006 C   0  0  0  0  0  0  0  0  0  0  0  0
   21.9195    3.5979   -7.8439 C   0  0  0  0  0  0  0  0  0  0  0  0
   23.3184    3.8176   -8.1740 C   0  0  0  0  0  0  0  0  0  0  0  0
   24.3819    4.2055   -7.3717 C   0  0  0  0  0  0  0  0  0  0  0  0
   24.3307    4.5420   -5.9311 C   0  0  0  0  0  0  0  0  0  0  0  0
   25.6061    4.2534   -8.0082 N   0  0  0  0  0  0  0  0  0  0  0  0
   25.4589    3.9324   -9.2738 C   0  0  0  0  0  0  0  0  0  0  0  0
   23.8717    3.5622   -9.7801 S   0  0  0  0  0  0  0  0  0  0  0  0
   20.9986    4.6377   -7.8443 C   0  0  0  0  0  0  0  0  0  0  0  0
   19.6722    4.4031   -7.5112 C   0  0  0  0  0  0  0  0  0  0  0  0
   14.5394   -0.4654   -7.4089 C   0  0  0  0  0  0  0  0  0  0  0  0
   13.4789   -0.5942   -6.3254 C   0  0  1  0  0  0  0  0  0  0  0  0
   12.3445   -1.3199   -6.7984 O   0  0  0  0  0  0  0  0  0  0  0  0
   14.1861   -1.3778   -5.2317 C   0  0  0  0  0  0  0  0  0  0  0  0
   18.2868   -5.8903   -4.6624 H   0  0  0  0  0  0  0  0  0  0  0  0
   16.7849   -6.6229   -5.2682 H   0  0  0  0  0  0  0  0  0  0  0  0
   17.4036   -7.0443   -3.6486 H   0  0  0  0  0  0  0  0  0  0  0  0
   17.9812   -3.8044   -4.2419 H   0  0  0  0  0  0  0  0  0  0  0  0
   15.2379   -2.9208   -3.6202 H   0  0  0  0  0  0  0  0  0  0  0  0
   18.2172   -1.2979   -0.9330 H   0  0  0  0  0  0  0  0  0  0  0  0
   18.1866   -0.6706   -2.5715 H   0  0  0  0  0  0  0  0  0  0  0  0
   18.7387   -2.3190   -2.2676 H   0  0  0  0  0  0  0  0  0  0  0  0
   15.7295   -0.1159   -2.5641 H   0  0  0  0  0  0  0  0  0  0  0  0
   15.7596   -0.5156   -0.8486 H   0  0  0  0  0  0  0  0  0  0  0  0
   14.5543   -1.2527   -1.9124 H   0  0  0  0  0  0  0  0  0  0  0  0
   16.4270   -2.7660   -0.0569 H   0  0  0  0  0  0  0  0  0  0  0  0
   17.0415   -3.9955   -1.1505 H   0  0  0  0  0  0  0  0  0  0  0  0
   15.3182   -3.5927   -1.1463 H   0  0  0  0  0  0  0  0  0  0  0  0
   16.6687   -0.8242   -7.2153 H   0  0  0  0  0  0  0  0  0  0  0  0
   17.8161    0.9326   -7.5924 H   0  0  0  0  0  0  0  0  0  0  0  0
   17.1306    3.5626   -7.3304 H   0  0  0  0  0  0  0  0  0  0  0  0
   17.6785    3.1616   -5.6960 H   0  0  0  0  0  0  0  0  0  0  0  0
   19.8724    1.0885   -6.8884 H   0  0  0  0  0  0  0  0  0  0  0  0
   22.1683    1.4929   -7.5027 H   0  0  0  0  0  0  0  0  0  0  0  0
   25.3021    4.8975   -5.5752 H   0  0  0  0  0  0  0  0  0  0  0  0
   24.0619    3.6644   -5.3394 H   0  0  0  0  0  0  0  0  0  0  0  0
   23.5951    5.3282   -5.7388 H   0  0  0  0  0  0  0  0  0  0  0  0
   26.2900    3.9050   -9.9639 H   0  0  0  0  0  0  0  0  0  0  0  0
   21.3102    5.6447   -8.1059 H   0  0  0  0  0  0  0  0  0  0  0  0
   18.9770    5.2378   -7.5148 H   0  0  0  0  0  0  0  0  0  0  0  0
   14.3534    0.3881   -8.0695 H   0  0  0  0  0  0  0  0  0  0  0  0
   14.5470   -1.3669   -8.0304 H   0  0  0  0  0  0  0  0  0  0  0  0
   13.1525    0.3855   -5.9592 H   0  0  0  0  0  0  0  0  0  0  0  0
   11.9021   -0.7839   -7.4821 H   0  0  0  0  0  0  0  0  0  0  0  0
   13.9767   -2.4500   -5.2964 H   0  0  0  0  0  0  0  0  0  0  0  0
   13.8916   -1.0368   -4.2353 H   0  0  0  0  0  0  0  0  0  0  0  0
  1 34  1  0  0  0  0
  1 35  1  0  0  0  0
  1 36  1  0  0  0  0
  1  2  1  0  0  0  0
  2  3  2  0  0  0  0
  2  4  1  0  0  0  0
  4 37  1  0  0  0  0
  5  4  1  0  0  0  0
  5 38  1  0  0  0  0
  5  6  1  0  0  0  0
  5 10  1  0  0  0  0
  6  7  1  0  0  0  0
  6  8  1  0  0  0  0
  6  9  1  0  0  0  0
  7 39  1  0  0  0  0
  7 40  1  0  0  0  0
  7 41  1  0  0  0  0
  8 42  1  0  0  0  0
  8 43  1  0  0  0  0
  8 44  1  0  0  0  0
  9 45  1  0  0  0  0
  9 46  1  0  0  0  0
  9 47  1  0  0  0  0
 10 11  2  0  0  0  0
 10 12  1  0  0  0  0
 12 33  1  0  0  0  0
 13 12  1  0  0  0  0
 13 30  1  0  0  0  0
 13 48  1  0  0  0  0
 13 14  1  0  0  0  0
 14 15  2  0  0  0  0
 14 16  1  0  0  0  0
 16 49  1  0  0  0  0
 16 17  1  0  0  0  0
 17 50  1  0  0  0  0
 17 51  1  0  0  0  0
 17 18  1  0  0  0  0
 18 19  1  0  0  0  0
 18 29  2  0  0  0  0
 19 52  1  0  0  0  0
 19 20  2  0  0  0  0
 20 53  1  0  0  0  0
 20 21  1  0  0  0  0
 21 28  2  0  0  0  0
 21 22  1  0  0  0  0
 22 23  2  0  0  0  0
 22 27  1  0  0  0  0
 23 24  1  0  0  0  0
 23 25  1  0  0  0  0
 24 54  1  0  0  0  0
 24 55  1  0  0  0  0
 24 56  1  0  0  0  0
 25 26  2  0  0  0  0
 26 57  1  0  0  0  0
 26 27  1  0  0  0  0
 28 58  1  0  0  0  0
 28 29  1  0  0  0  0
 29 59  1  0  0  0  0
 31 30  1  0  0  0  0
 30 60  1  0  0  0  0
 30 61  1  0  0  0  0
 31 33  1  0  0  0  0
 31 62  1  0  0  0  0
 31 32  1  0  0  0  0
 32 63  1  0  0  0  0
 33 64  1  0  0  0  0
 33 65  1  0  0  0  0
M  ZZC   1 c1
M  ZZC   2 c2
M  ZZC   3 o1
M  ZZC   4 n1
M  ZZC   5 c3
M  ZZC   6 c4
M  ZZC   7 c5
M  ZZC   8 c6
M  ZZC   9 c7
M  ZZC  10 c8
M  ZZC  11 o2
M  ZZC  12 n2
M  ZZC  13 c9
M  ZZC  14 c10
M  ZZC  15 o3
M  ZZC  16 n3
M  ZZC  17 c11
M  ZZC  18 c12
M  ZZC  19 c13
M  ZZC  20 c14
M  ZZC  21 c15
M  ZZC  22 c16
M  ZZC  23 c17
M  ZZC  24 c18
M  ZZC  25 n4
M  ZZC  26 c19
M  ZZC  27 s1
M  ZZC  28 c20
M  ZZC  29 c21
M  ZZC  30 c22
M  ZZC  31 c23
M  ZZC  32 o4
M  ZZC  33 c24
M  ZZC  34 h11
M  ZZC  35 h12
M  ZZC  36 h13
M  ZZC  37 h01
M  ZZC  38 h31
M  ZZC  39 h51
M  ZZC  40 h52
M  ZZC  41 h53
M  ZZC  42 h61
M  ZZC  43 h62
M  ZZC  44 h63
M  ZZC  45 h71
M  ZZC  46 h72
M  ZZC  47 h73
M  ZZC  48 h91
M  ZZC  49 h02
M  ZZC  50 h111
M  ZZC  51 h112
M  ZZC  52 h131
M  ZZC  53 h141
M  ZZC  54 h181
M  ZZC  55 h182
M  ZZC  56 h183
M  ZZC  57 h191
M  ZZC  58 h201
M  ZZC  59 h211
M  ZZC  60 h221
M  ZZC  61 h222
M  ZZC  62 h231
M  ZZC  63 h41
M  ZZC  64 h241
M  ZZC  65 h242
M  ZZM   1 1
M  ZZI   1 111
M  ZZM   2 3
M  ZZI   2 121
M  ZZM   3 7
M  ZZI   3 81
M  ZZM   4 10
M  ZZI   4 211
M  ZZM   5 1
M  ZZI   5 113
M  ZZM   6 1
M  ZZI   6 110
M  ZZM   7 1
M  ZZI   7 111
M  ZZM   8 1
M  ZZI   8 111
M  ZZM   9 1
M  ZZI   9 111
M  ZZM  10 3
M  ZZI  10 121
M  ZZM  11 7
M  ZZI  11 81
M  ZZM  12 10
M  ZZI  12 192
M  ZZM  13 1
M  ZZI  13 113
M  ZZM  14 3
M  ZZI  14 121
M  ZZM  15 7
M  ZZI  15 81
M  ZZM  16 10
M  ZZI  16 211
M  ZZM  17 1
M  ZZI  17 112
M  ZZM  18 37
M  ZZI  18 124
M  ZZM  19 37
M  ZZI  19 125
M  ZZM  20 37
M  ZZI  20 125
M  ZZM  21 37
M  ZZI  21 124
M  ZZM  22 63
M  ZZI  22 104
M  ZZM  23 64
M  ZZI  23 105
M  ZZM  24 1
M  ZZI  24 111
M  ZZM  25 66
M  ZZI  25 222
M  ZZM  26 63
M  ZZI  26 104
M  ZZM  27 44
M  ZZI  27 248
M  ZZM  28 37
M  ZZI  28 125
M  ZZM  29 37
M  ZZI  29 125
M  ZZM  30 1
M  ZZI  30 112
M  ZZM  31 1
M  ZZI  31 113
M  ZZM  32 6
M  ZZI  32 60
M  ZZM  33 1
M  ZZI  33 112
M  ZZM  34 5
M  ZZI  34 1
M  ZZM  35 5
M  ZZI  35 1
M  ZZM  36 5
M  ZZI  36 1
M  ZZM  37 28
M  ZZI  37 11
M  ZZM  38 5
M  ZZI  38 1
M  ZZM  39 5
M  ZZI  39 1
M  ZZM  40 5
M  ZZI  40 1
M  ZZM  41 5
M  ZZI  41 1
M  ZZM  42 5
M  ZZI  42 1
M  ZZM  43 5
M  ZZI  43 1
M  ZZM  44 5
M  ZZI  44 1
M  ZZM  45 5
M  ZZI  45 1
M  ZZM  46 5
M  ZZI  46 1
M  ZZM  47 5
M  ZZI  47 1
M  ZZM  48 5
M  ZZI  48 1
M  ZZM  49 28
M  ZZI  49 11
M  ZZM  50 5
M  ZZI  50 1
M  ZZM  51 5
M  ZZI  51 1
M  ZZM  52 5
M  ZZI  52 1
M  ZZM  53 5
M  ZZI  53 1
M  ZZM  54 5
M  ZZI  54 1
M  ZZM  55 5
M  ZZI  55 1
M  ZZM  56 5
M  ZZI  56 1
M  ZZM  57 5
M  ZZI  57 1
M  ZZM  58 5
M  ZZI  58 1
M  ZZM  59 5
M  ZZI  59 1
M  ZZM  60 5
M  ZZI  60 1
M  ZZM  61 5
M  ZZI  61 1
M  ZZM  62 5
M  ZZI  62 1
M  ZZM  63 21
M  ZZI  63 20
M  ZZM  64 5
M  ZZI  64 1
M  ZZM  65 5
M  ZZI  65 1
M  END
> <IX>
1

> <NAME>
VHL_5T8E_25.pdb

> <Score>
-16.337637

> <Natom>
65

> <Nflex>
8

> <Hbond>
-4.86326

> <Hphob>
-6.411382

> <VwInt>
-32.19098

> <Dsolv>
17.39773

> <SolEl>
18.431996

> <Eintl>
4.066002

> <RecConf>
ND

> <projPath>
VHL_maps/

> <NAME_>
VHL_5T8E_25.pdb

$$$$
