VHL_4CI3_28.pdb
  MOLSOFT 04032206393D

 70 73  0  0  1  0  0  0  0  0999 V2000
   15.7289   -2.6640   -0.6049 F   0  0  0  0  0  0  0  0  0  0  0  0
   15.2555   -2.5176   -1.9043 C   0  0  0  0  0  0  0  0  0  0  0  0
   14.3749   -1.3403   -2.1337 C   0  0  0  0  0  0  0  0  0  0  0  0
   13.1614   -1.4471   -2.0413 O   0  0  0  0  0  0  0  0  0  0  0  0
   15.0399   -0.1721   -2.4579 N   0  0  0  0  0  0  0  0  0  0  0  0
   14.3444    1.0388   -2.9173 C   0  0  1  0  0  0  0  0  0  0  0  0
   14.3385    2.1741   -1.8516 C   0  0  0  0  0  0  0  0  0  0  0  0
   13.4795    1.7280   -0.6560 C   0  0  0  0  0  0  0  0  0  0  0  0
   15.7402    2.5207   -1.3209 C   0  0  0  0  0  0  0  0  0  0  0  0
   13.6998    3.4426   -2.4382 C   0  0  0  0  0  0  0  0  0  0  0  0
   15.0210    1.3718   -4.2653 C   0  0  0  0  0  0  0  0  0  0  0  0
   16.0564    2.0192   -4.3308 O   0  0  0  0  0  0  0  0  0  0  0  0
   14.4760    0.7605   -5.3956 N   0  0  0  0  0  0  0  0  0  0  0  0
   15.2358    0.6086   -6.6384 C   0  0  2  0  0  0  0  0  0  0  0  0
   15.0811    1.7469   -7.6522 C   0  0  0  0  0  0  0  0  0  0  0  0
   15.7651    1.7908   -8.6639 O   0  0  0  0  0  0  0  0  0  0  0  0
   14.0506    2.6275   -7.4063 N   0  0  0  0  0  0  0  0  0  0  0  0
   13.7158    3.7011   -8.3198 C   0  0  0  0  0  0  0  0  0  0  0  0
   13.9397    5.0702   -7.7288 C   0  0  0  0  0  0  0  0  0  0  0  0
   13.3253    6.1756   -8.2993 C   0  0  0  0  0  0  0  0  0  0  0  0
   12.5000    5.9826   -9.3848 O   0  0  0  0  0  0  0  0  0  0  0  0
   13.4789    7.4537   -7.7968 C   0  0  0  0  0  0  0  0  0  0  0  0
   14.2659    7.6592   -6.6727 C   0  0  0  0  0  0  0  0  0  0  0  0
   14.3615    8.9838   -6.0836 C   0  0  0  0  0  0  0  0  0  0  0  0
   13.9711    9.4398   -4.8327 C   0  0  0  0  0  0  0  0  0  0  0  0
   13.3964    8.6248   -3.7360 C   0  0  0  0  0  0  0  0  0  0  0  0
   14.0994   10.8050   -4.6461 N   0  0  0  0  0  0  0  0  0  0  0  0
   14.6818   11.3375   -5.6988 C   0  0  0  0  0  0  0  0  0  0  0  0
   15.0459   10.2753   -6.9835 S   0  0  0  0  0  0  0  0  0  0  0  0
   14.9198    6.5700   -6.1068 C   0  0  0  0  0  0  0  0  0  0  0  0
   14.7714    5.2964   -6.6324 C   0  0  0  0  0  0  0  0  0  0  0  0
   14.6655   -0.6695   -7.2307 C   0  0  0  0  0  0  0  0  0  0  0  0
   13.1989   -0.5925   -6.8393 C   0  0  1  0  0  0  0  0  0  0  0  0
   12.6069   -1.8823   -6.8259 O   0  0  0  0  0  0  0  0  0  0  0  0
   13.2535   -0.0207   -5.4388 C   0  0  0  0  0  0  0  0  0  0  0  0
   16.1901   -3.0046   -2.9871 C   0  0  0  0  0  0  0  0  0  0  0  0
   14.9832   -3.8147   -2.6280 C   0  0  0  0  0  0  0  0  0  0  0  0
   16.0558   -0.1734   -2.4559 H   0  0  0  0  0  0  0  0  0  0  0  0
   13.3002    0.7788   -3.1100 H   0  0  0  0  0  0  0  0  0  0  0  0
   13.4237    2.5089    0.1092 H   0  0  0  0  0  0  0  0  0  0  0  0
   13.8894    0.8349   -0.1761 H   0  0  0  0  0  0  0  0  0  0  0  0
   12.4550    1.4850   -0.9534 H   0  0  0  0  0  0  0  0  0  0  0  0
   15.6849    3.2808   -0.5346 H   0  0  0  0  0  0  0  0  0  0  0  0
   16.3917    2.9244   -2.0995 H   0  0  0  0  0  0  0  0  0  0  0  0
   16.2404    1.6497   -0.8868 H   0  0  0  0  0  0  0  0  0  0  0  0
   14.2725    3.8427   -3.2800 H   0  0  0  0  0  0  0  0  0  0  0  0
   13.6300    4.2392   -1.6905 H   0  0  0  0  0  0  0  0  0  0  0  0
   12.6847    3.2451   -2.7936 H   0  0  0  0  0  0  0  0  0  0  0  0
   16.3040    0.5100   -6.4141 H   0  0  0  0  0  0  0  0  0  0  0  0
   13.5137    2.5391   -6.5514 H   0  0  0  0  0  0  0  0  0  0  0  0
   14.2924    3.6037   -9.2454 H   0  0  0  0  0  0  0  0  0  0  0  0
   12.6596    3.5593   -8.5670 H   0  0  0  0  0  0  0  0  0  0  0  0
   12.4893    6.8107   -9.8992 H   0  0  0  0  0  0  0  0  0  0  0  0
   12.9483    8.2816   -8.2555 H   0  0  0  0  0  0  0  0  0  0  0  0
   13.1711    9.2459   -2.8632 H   0  0  0  0  0  0  0  0  0  0  0  0
   14.0918    7.8397   -3.4265 H   0  0  0  0  0  0  0  0  0  0  0  0
   12.4741    8.1328   -4.0566 H   0  0  0  0  0  0  0  0  0  0  0  0
   14.9110   12.3917   -5.7633 H   0  0  0  0  0  0  0  0  0  0  0  0
   15.5556    6.7050   -5.2369 H   0  0  0  0  0  0  0  0  0  0  0  0
   15.3032    4.4772   -6.1577 H   0  0  0  0  0  0  0  0  0  0  0  0
   14.8145   -0.7604   -8.3100 H   0  0  0  0  0  0  0  0  0  0  0  0
   15.1319   -1.5518   -6.7755 H   0  0  0  0  0  0  0  0  0  0  0  0
   12.6370    0.0560   -7.5204 H   0  0  0  0  0  0  0  0  0  0  0  0
   11.6625   -1.7652   -6.6158 H   0  0  0  0  0  0  0  0  0  0  0  0
   13.2918   -0.8178   -4.6916 H   0  0  0  0  0  0  0  0  0  0  0  0
   12.3890    0.6129   -5.2206 H   0  0  0  0  0  0  0  0  0  0  0  0
   16.1886   -2.5051   -3.9485 H   0  0  0  0  0  0  0  0  0  0  0  0
   17.1595   -3.3783   -2.6825 H   0  0  0  0  0  0  0  0  0  0  0  0
   15.1343   -4.7374   -2.0821 H   0  0  0  0  0  0  0  0  0  0  0  0
   14.1676   -3.8488   -3.3401 H   0  0  0  0  0  0  0  0  0  0  0  0
  2  1  1  0  0  0  0
  2 36  1  0  0  0  0
  2  3  1  0  0  0  0
  2 37  1  0  0  0  0
  3  4  2  0  0  0  0
  3  5  1  0  0  0  0
  5 38  1  0  0  0  0
  6  5  1  0  0  0  0
  6 39  1  0  0  0  0
  6  7  1  0  0  0  0
  6 11  1  0  0  0  0
  7  8  1  0  0  0  0
  7  9  1  0  0  0  0
  7 10  1  0  0  0  0
  8 40  1  0  0  0  0
  8 41  1  0  0  0  0
  8 42  1  0  0  0  0
  9 43  1  0  0  0  0
  9 44  1  0  0  0  0
  9 45  1  0  0  0  0
 10 46  1  0  0  0  0
 10 47  1  0  0  0  0
 10 48  1  0  0  0  0
 11 12  2  0  0  0  0
 11 13  1  0  0  0  0
 13 35  1  0  0  0  0
 14 13  1  0  0  0  0
 14 32  1  0  0  0  0
 14 49  1  0  0  0  0
 14 15  1  0  0  0  0
 15 16  2  0  0  0  0
 15 17  1  0  0  0  0
 17 50  1  0  0  0  0
 17 18  1  0  0  0  0
 18 51  1  0  0  0  0
 18 52  1  0  0  0  0
 18 19  1  0  0  0  0
 19 20  2  0  0  0  0
 19 31  1  0  0  0  0
 20 21  1  0  0  0  0
 20 22  1  0  0  0  0
 21 53  1  0  0  0  0
 22 54  1  0  0  0  0
 22 23  2  0  0  0  0
 23 30  1  0  0  0  0
 23 24  1  0  0  0  0
 24 25  2  0  0  0  0
 24 29  1  0  0  0  0
 25 26  1  0  0  0  0
 25 27  1  0  0  0  0
 26 55  1  0  0  0  0
 26 56  1  0  0  0  0
 26 57  1  0  0  0  0
 27 28  2  0  0  0  0
 28 58  1  0  0  0  0
 28 29  1  0  0  0  0
 30 59  1  0  0  0  0
 30 31  2  0  0  0  0
 31 60  1  0  0  0  0
 33 32  1  0  0  0  0
 32 61  1  0  0  0  0
 32 62  1  0  0  0  0
 33 35  1  0  0  0  0
 33 63  1  0  0  0  0
 33 34  1  0  0  0  0
 34 64  1  0  0  0  0
 35 65  1  0  0  0  0
 35 66  1  0  0  0  0
 36 67  1  0  0  0  0
 36 68  1  0  0  0  0
 36 37  1  0  0  0  0
 37 69  1  0  0  0  0
 37 70  1  0  0  0  0
M  ZZC   1 f1
M  ZZC   2 c1
M  ZZC   3 c2
M  ZZC   4 o1
M  ZZC   5 n1
M  ZZC   6 c3
M  ZZC   7 c4
M  ZZC   8 c5
M  ZZC   9 c6
M  ZZC  10 c7
M  ZZC  11 c8
M  ZZC  12 o2
M  ZZC  13 n2
M  ZZC  14 c9
M  ZZC  15 c10
M  ZZC  16 o3
M  ZZC  17 n3
M  ZZC  18 c11
M  ZZC  19 c12
M  ZZC  20 c13
M  ZZC  21 o4
M  ZZC  22 c14
M  ZZC  23 c15
M  ZZC  24 c16
M  ZZC  25 c17
M  ZZC  26 c18
M  ZZC  27 n4
M  ZZC  28 c19
M  ZZC  29 s1
M  ZZC  30 c20
M  ZZC  31 c21
M  ZZC  32 c22
M  ZZC  33 c23
M  ZZC  34 o5
M  ZZC  35 c24
M  ZZC  36 c25
M  ZZC  37 c26
M  ZZC  38 h11
M  ZZC  39 h31
M  ZZC  40 h51
M  ZZC  41 h52
M  ZZC  42 h53
M  ZZC  43 h61
M  ZZC  44 h62
M  ZZC  45 h63
M  ZZC  46 h71
M  ZZC  47 h72
M  ZZC  48 h73
M  ZZC  49 h91
M  ZZC  50 h01
M  ZZC  51 h111
M  ZZC  52 h112
M  ZZC  53 h41
M  ZZC  54 h141
M  ZZC  55 h181
M  ZZC  56 h182
M  ZZC  57 h183
M  ZZC  58 h191
M  ZZC  59 h201
M  ZZC  60 h211
M  ZZC  61 h221
M  ZZC  62 h222
M  ZZC  63 h231
M  ZZC  64 h02
M  ZZC  65 h241
M  ZZC  66 h242
M  ZZC  67 h251
M  ZZC  68 h252
M  ZZC  69 h261
M  ZZC  70 h262
M  ZZM   1 11
M  ZZI   1 90
M  ZZM   2 22
M  ZZI   2 109
M  ZZM   3 3
M  ZZI   3 121
M  ZZM   4 7
M  ZZI   4 81
M  ZZM   5 10
M  ZZI   5 211
M  ZZM   6 1
M  ZZI   6 113
M  ZZM   7 1
M  ZZI   7 110
M  ZZM   8 1
M  ZZI   8 111
M  ZZM   9 1
M  ZZI   9 111
M  ZZM  10 1
M  ZZI  10 111
M  ZZM  11 3
M  ZZI  11 121
M  ZZM  12 7
M  ZZI  12 81
M  ZZM  13 10
M  ZZI  13 192
M  ZZM  14 1
M  ZZI  14 113
M  ZZM  15 3
M  ZZI  15 121
M  ZZM  16 7
M  ZZI  16 81
M  ZZM  17 10
M  ZZI  17 211
M  ZZM  18 1
M  ZZI  18 112
M  ZZM  19 37
M  ZZI  19 124
M  ZZM  20 37
M  ZZI  20 124
M  ZZM  21 6
M  ZZI  21 62
M  ZZM  22 37
M  ZZI  22 125
M  ZZM  23 37
M  ZZI  23 124
M  ZZM  24 63
M  ZZI  24 104
M  ZZM  25 64
M  ZZI  25 105
M  ZZM  26 1
M  ZZI  26 111
M  ZZM  27 66
M  ZZI  27 222
M  ZZM  28 63
M  ZZI  28 104
M  ZZM  29 44
M  ZZI  29 248
M  ZZM  30 37
M  ZZI  30 125
M  ZZM  31 37
M  ZZI  31 125
M  ZZM  32 1
M  ZZI  32 112
M  ZZM  33 1
M  ZZI  33 113
M  ZZM  34 6
M  ZZI  34 60
M  ZZM  35 1
M  ZZI  35 112
M  ZZM  36 22
M  ZZI  36 109
M  ZZM  37 22
M  ZZI  37 109
M  ZZM  38 28
M  ZZI  38 11
M  ZZM  39 5
M  ZZI  39 1
M  ZZM  40 5
M  ZZI  40 1
M  ZZM  41 5
M  ZZI  41 1
M  ZZM  42 5
M  ZZI  42 1
M  ZZM  43 5
M  ZZI  43 1
M  ZZM  44 5
M  ZZI  44 1
M  ZZM  45 5
M  ZZI  45 1
M  ZZM  46 5
M  ZZI  46 1
M  ZZM  47 5
M  ZZI  47 1
M  ZZM  48 5
M  ZZI  48 1
M  ZZM  49 5
M  ZZI  49 1
M  ZZM  50 28
M  ZZI  50 11
M  ZZM  51 5
M  ZZI  51 1
M  ZZM  52 5
M  ZZI  52 1
M  ZZM  53 29
M  ZZI  53 27
M  ZZM  54 5
M  ZZI  54 1
M  ZZM  55 5
M  ZZI  55 1
M  ZZM  56 5
M  ZZI  56 1
M  ZZM  57 5
M  ZZI  57 1
M  ZZM  58 5
M  ZZI  58 1
M  ZZM  59 5
M  ZZI  59 1
M  ZZM  60 5
M  ZZI  60 1
M  ZZM  61 5
M  ZZI  61 1
M  ZZM  62 5
M  ZZI  62 1
M  ZZM  63 5
M  ZZI  63 1
M  ZZM  64 21
M  ZZI  64 20
M  ZZM  65 5
M  ZZI  65 1
M  ZZM  66 5
M  ZZI  66 1
M  ZZM  67 5
M  ZZI  67 1
M  ZZM  68 5
M  ZZI  68 1
M  ZZM  69 5
M  ZZI  69 1
M  ZZM  70 5
M  ZZI  70 1
M  END
> <IX>
1

> <NAME>
VHL_4CI3_28.pdb

> <Score>
-22.973889

> <Natom>
70

> <Nflex>
9

> <Hbond>
-8.885871

> <Hphob>
-6.275879

> <VwInt>
-29.076063

> <Dsolv>
22.24431

> <SolEl>
8.142966

> <Eintl>
8.884459

> <RecConf>
ND

> <projPath>
VHL_maps/

> <NAME_>
VHL_4CI3_28.pdb

$$$$
