VHL_4QNQ_18.pdb
  MOLSOFT 04032206403D

 68 70  0  0  1  0  0  0  0  0999 V2000
   18.0773   -6.8609   -5.1115 C   0  0  0  0  0  0  0  0  0  0  0  0
   16.8802   -5.9584   -4.9985 C   0  0  0  0  0  0  0  0  0  0  0  0
   15.8115   -6.2720   -5.4935 O   0  0  0  0  0  0  0  0  0  0  0  0
   17.1187   -4.8140   -4.2641 N   0  0  0  0  0  0  0  0  0  0  0  0
   16.1267   -3.7550   -4.0158 C   0  0  1  0  0  0  0  0  0  0  0  0
   15.8494   -3.5572   -2.4973 C   0  0  0  0  0  0  0  0  0  0  0  0
   15.3471   -4.8916   -1.9415 C   0  0  0  0  0  0  0  0  0  0  0  0
   17.0989   -3.1141   -1.7232 C   0  0  0  0  0  0  0  0  0  0  0  0
   14.7530   -2.5241   -2.2154 C   0  0  0  0  0  0  0  0  0  0  0  0
   16.6819   -2.5332   -4.7665 C   0  0  0  0  0  0  0  0  0  0  0  0
   17.8859   -2.3061   -4.7929 O   0  0  0  0  0  0  0  0  0  0  0  0
   15.7782   -1.7144   -5.4450 N   0  0  0  0  0  0  0  0  0  0  0  0
   16.2554   -0.7685   -6.4357 C   0  0  2  0  0  0  0  0  0  0  0  0
   16.7651    0.5104   -5.7717 C   0  0  0  0  0  0  0  0  0  0  0  0
   16.2969    0.9494   -4.7296 O   0  0  0  0  0  0  0  0  0  0  0  0
   17.7583    1.1437   -6.4983 N   0  0  0  0  0  0  0  0  0  0  0  0
   18.3364    2.4055   -6.0650 C   0  0  1  0  0  0  0  0  0  0  0  0
   19.6239    2.7157   -6.8245 C   0  0  0  0  0  0  0  0  0  0  0  0
   17.3423    3.5425   -6.1829 C   0  0  0  0  0  0  0  0  0  0  0  0
   17.3566    4.5752   -5.2533 C   0  0  0  0  0  0  0  0  0  0  0  0
   16.3928    5.5662   -5.2806 C   0  0  0  0  0  0  0  0  0  0  0  0
   15.3784    5.5521   -6.2340 C   0  0  0  0  0  0  0  0  0  0  0  0
   14.2935    6.5243   -6.1922 C   0  0  0  0  0  0  0  0  0  0  0  0
   13.6959    7.2835   -7.1928 C   0  0  0  0  0  0  0  0  0  0  0  0
   14.0572    7.3337   -8.6285 C   0  0  0  0  0  0  0  0  0  0  0  0
   12.6402    8.0673   -6.7748 N   0  0  0  0  0  0  0  0  0  0  0  0
   12.4353    7.8794   -5.4909 C   0  0  0  0  0  0  0  0  0  0  0  0
   13.5004    6.8231   -4.6935 S   0  0  0  0  0  0  0  0  0  0  0  0
   15.3999    4.5563   -7.2039 C   0  0  0  0  0  0  0  0  0  0  0  0
   16.3713    3.5722   -7.1820 C   0  0  0  0  0  0  0  0  0  0  0  0
   15.0470   -0.5210   -7.3262 C   0  0  0  0  0  0  0  0  0  0  0  0
   13.8586   -0.6735   -6.3881 C   0  0  1  0  0  0  0  0  0  0  0  0
   12.7164   -1.2026   -7.0583 O   0  0  0  0  0  0  0  0  0  0  0  0
   14.3319   -1.6573   -5.3312 C   0  0  0  0  0  0  0  0  0  0  0  0
   18.9973   -6.2791   -5.2247 H   0  0  0  0  0  0  0  0  0  0  0  0
   17.9660   -7.5046   -5.9892 H   0  0  0  0  0  0  0  0  0  0  0  0
   18.1397   -7.4829   -4.2158 H   0  0  0  0  0  0  0  0  0  0  0  0
   18.0756   -4.6343   -3.9796 H   0  0  0  0  0  0  0  0  0  0  0  0
   15.1972   -4.0678   -4.4908 H   0  0  0  0  0  0  0  0  0  0  0  0
   15.0829   -4.7985   -0.8867 H   0  0  0  0  0  0  0  0  0  0  0  0
   16.1014   -5.6748   -2.0339 H   0  0  0  0  0  0  0  0  0  0  0  0
   14.4554   -5.2397   -2.4726 H   0  0  0  0  0  0  0  0  0  0  0  0
   16.8965   -3.0340   -0.6502 H   0  0  0  0  0  0  0  0  0  0  0  0
   17.4593   -2.1365   -2.0584 H   0  0  0  0  0  0  0  0  0  0  0  0
   17.9171   -3.8206   -1.8385 H   0  0  0  0  0  0  0  0  0  0  0  0
   15.0659   -1.5152   -2.4975 H   0  0  0  0  0  0  0  0  0  0  0  0
   14.5098   -2.4824   -1.1485 H   0  0  0  0  0  0  0  0  0  0  0  0
   13.8247   -2.7733   -2.7383 H   0  0  0  0  0  0  0  0  0  0  0  0
   17.0711   -1.2185   -7.0070 H   0  0  0  0  0  0  0  0  0  0  0  0
   18.1250    0.7003   -7.3344 H   0  0  0  0  0  0  0  0  0  0  0  0
   18.5857    2.2692   -5.0058 H   0  0  0  0  0  0  0  0  0  0  0  0
   20.1211    3.6006   -6.4154 H   0  0  0  0  0  0  0  0  0  0  0  0
   19.4339    2.9109   -7.8822 H   0  0  0  0  0  0  0  0  0  0  0  0
   20.3262    1.8788   -6.7683 H   0  0  0  0  0  0  0  0  0  0  0  0
   18.1094    4.5966   -4.4705 H   0  0  0  0  0  0  0  0  0  0  0  0
   16.4290    6.3409   -4.5206 H   0  0  0  0  0  0  0  0  0  0  0  0
   13.7717    8.2947   -9.0635 H   0  0  0  0  0  0  0  0  0  0  0  0
   13.5371    6.5461   -9.1817 H   0  0  0  0  0  0  0  0  0  0  0  0
   15.1334    7.2114   -8.7801 H   0  0  0  0  0  0  0  0  0  0  0  0
   11.6375    8.3594   -4.9504 H   0  0  0  0  0  0  0  0  0  0  0  0
   14.6251    4.5073   -7.9634 H   0  0  0  0  0  0  0  0  0  0  0  0
   16.3334    2.7906   -7.9325 H   0  0  0  0  0  0  0  0  0  0  0  0
   15.0580    0.4570   -7.8179 H   0  0  0  0  0  0  0  0  0  0  0  0
   15.0018   -1.2783   -8.1169 H   0  0  0  0  0  0  0  0  0  0  0  0
   13.5859    0.2851   -5.9318 H   0  0  0  0  0  0  0  0  0  0  0  0
   12.4504   -0.5732   -7.7523 H   0  0  0  0  0  0  0  0  0  0  0  0
   13.8901   -2.6503   -5.4204 H   0  0  0  0  0  0  0  0  0  0  0  0
   14.0679   -1.2633   -4.3510 H   0  0  0  0  0  0  0  0  0  0  0  0
  1 35  1  0  0  0  0
  1 36  1  0  0  0  0
  1 37  1  0  0  0  0
  1  2  1  0  0  0  0
  2  3  2  0  0  0  0
  2  4  1  0  0  0  0
  4 38  1  0  0  0  0
  5  4  1  0  0  0  0
  5 39  1  0  0  0  0
  5  6  1  0  0  0  0
  5 10  1  0  0  0  0
  6  7  1  0  0  0  0
  6  8  1  0  0  0  0
  6  9  1  0  0  0  0
  7 40  1  0  0  0  0
  7 41  1  0  0  0  0
  7 42  1  0  0  0  0
  8 43  1  0  0  0  0
  8 44  1  0  0  0  0
  8 45  1  0  0  0  0
  9 46  1  0  0  0  0
  9 47  1  0  0  0  0
  9 48  1  0  0  0  0
 10 11  2  0  0  0  0
 10 12  1  0  0  0  0
 12 34  1  0  0  0  0
 13 12  1  0  0  0  0
 13 31  1  0  0  0  0
 13 49  1  0  0  0  0
 13 14  1  0  0  0  0
 14 15  2  0  0  0  0
 14 16  1  0  0  0  0
 16 50  1  0  0  0  0
 17 16  1  0  0  0  0
 17 51  1  0  0  0  0
 17 18  1  0  0  0  0
 17 19  1  0  0  0  0
 18 52  1  0  0  0  0
 18 53  1  0  0  0  0
 18 54  1  0  0  0  0
 19 20  1  0  0  0  0
 19 30  2  0  0  0  0
 20 55  1  0  0  0  0
 20 21  2  0  0  0  0
 21 56  1  0  0  0  0
 21 22  1  0  0  0  0
 22 29  2  0  0  0  0
 22 23  1  0  0  0  0
 23 24  2  0  0  0  0
 23 28  1  0  0  0  0
 24 25  1  0  0  0  0
 24 26  1  0  0  0  0
 25 57  1  0  0  0  0
 25 58  1  0  0  0  0
 25 59  1  0  0  0  0
 26 27  2  0  0  0  0
 27 60  1  0  0  0  0
 27 28  1  0  0  0  0
 29 61  1  0  0  0  0
 29 30  1  0  0  0  0
 30 62  1  0  0  0  0
 32 31  1  0  0  0  0
 31 63  1  0  0  0  0
 31 64  1  0  0  0  0
 32 34  1  0  0  0  0
 32 65  1  0  0  0  0
 32 33  1  0  0  0  0
 33 66  1  0  0  0  0
 34 67  1  0  0  0  0
 34 68  1  0  0  0  0
M  ZZC   1 c1
M  ZZC   2 c2
M  ZZC   3 o1
M  ZZC   4 n1
M  ZZC   5 c3
M  ZZC   6 c4
M  ZZC   7 c5
M  ZZC   8 c6
M  ZZC   9 c7
M  ZZC  10 c8
M  ZZC  11 o2
M  ZZC  12 n2
M  ZZC  13 c9
M  ZZC  14 c10
M  ZZC  15 o3
M  ZZC  16 n3
M  ZZC  17 c11
M  ZZC  18 c12
M  ZZC  19 c13
M  ZZC  20 c14
M  ZZC  21 c15
M  ZZC  22 c16
M  ZZC  23 c17
M  ZZC  24 c18
M  ZZC  25 c19
M  ZZC  26 n4
M  ZZC  27 c20
M  ZZC  28 s1
M  ZZC  29 c21
M  ZZC  30 c22
M  ZZC  31 c23
M  ZZC  32 c24
M  ZZC  33 o4
M  ZZC  34 c25
M  ZZC  35 h11
M  ZZC  36 h12
M  ZZC  37 h13
M  ZZC  38 h01
M  ZZC  39 h31
M  ZZC  40 h51
M  ZZC  41 h52
M  ZZC  42 h53
M  ZZC  43 h61
M  ZZC  44 h62
M  ZZC  45 h63
M  ZZC  46 h71
M  ZZC  47 h72
M  ZZC  48 h73
M  ZZC  49 h91
M  ZZC  50 h02
M  ZZC  51 h111
M  ZZC  52 h121
M  ZZC  53 h122
M  ZZC  54 h123
M  ZZC  55 h141
M  ZZC  56 h151
M  ZZC  57 h191
M  ZZC  58 h192
M  ZZC  59 h193
M  ZZC  60 h201
M  ZZC  61 h211
M  ZZC  62 h221
M  ZZC  63 h231
M  ZZC  64 h232
M  ZZC  65 h241
M  ZZC  66 h41
M  ZZC  67 h251
M  ZZC  68 h252
M  ZZM   1 1
M  ZZI   1 111
M  ZZM   2 3
M  ZZI   2 121
M  ZZM   3 7
M  ZZI   3 81
M  ZZM   4 10
M  ZZI   4 211
M  ZZM   5 1
M  ZZI   5 113
M  ZZM   6 1
M  ZZI   6 110
M  ZZM   7 1
M  ZZI   7 111
M  ZZM   8 1
M  ZZI   8 111
M  ZZM   9 1
M  ZZI   9 111
M  ZZM  10 3
M  ZZI  10 121
M  ZZM  11 7
M  ZZI  11 81
M  ZZM  12 10
M  ZZI  12 192
M  ZZM  13 1
M  ZZI  13 113
M  ZZM  14 3
M  ZZI  14 121
M  ZZM  15 7
M  ZZI  15 81
M  ZZM  16 10
M  ZZI  16 211
M  ZZM  17 1
M  ZZI  17 113
M  ZZM  18 1
M  ZZI  18 111
M  ZZM  19 37
M  ZZI  19 124
M  ZZM  20 37
M  ZZI  20 125
M  ZZM  21 37
M  ZZI  21 125
M  ZZM  22 37
M  ZZI  22 124
M  ZZM  23 63
M  ZZI  23 104
M  ZZM  24 64
M  ZZI  24 105
M  ZZM  25 1
M  ZZI  25 111
M  ZZM  26 66
M  ZZI  26 222
M  ZZM  27 63
M  ZZI  27 104
M  ZZM  28 44
M  ZZI  28 248
M  ZZM  29 37
M  ZZI  29 125
M  ZZM  30 37
M  ZZI  30 125
M  ZZM  31 1
M  ZZI  31 112
M  ZZM  32 1
M  ZZI  32 113
M  ZZM  33 6
M  ZZI  33 60
M  ZZM  34 1
M  ZZI  34 112
M  ZZM  35 5
M  ZZI  35 1
M  ZZM  36 5
M  ZZI  36 1
M  ZZM  37 5
M  ZZI  37 1
M  ZZM  38 28
M  ZZI  38 11
M  ZZM  39 5
M  ZZI  39 1
M  ZZM  40 5
M  ZZI  40 1
M  ZZM  41 5
M  ZZI  41 1
M  ZZM  42 5
M  ZZI  42 1
M  ZZM  43 5
M  ZZI  43 1
M  ZZM  44 5
M  ZZI  44 1
M  ZZM  45 5
M  ZZI  45 1
M  ZZM  46 5
M  ZZI  46 1
M  ZZM  47 5
M  ZZI  47 1
M  ZZM  48 5
M  ZZI  48 1
M  ZZM  49 5
M  ZZI  49 1
M  ZZM  50 28
M  ZZI  50 11
M  ZZM  51 5
M  ZZI  51 1
M  ZZM  52 5
M  ZZI  52 1
M  ZZM  53 5
M  ZZI  53 1
M  ZZM  54 5
M  ZZI  54 1
M  ZZM  55 5
M  ZZI  55 1
M  ZZM  56 5
M  ZZI  56 1
M  ZZM  57 5
M  ZZI  57 1
M  ZZM  58 5
M  ZZI  58 1
M  ZZM  59 5
M  ZZI  59 1
M  ZZM  60 5
M  ZZI  60 1
M  ZZM  61 5
M  ZZI  61 1
M  ZZM  62 5
M  ZZI  62 1
M  ZZM  63 5
M  ZZI  63 1
M  ZZM  64 5
M  ZZI  64 1
M  ZZM  65 5
M  ZZI  65 1
M  ZZM  66 21
M  ZZI  66 20
M  ZZM  67 5
M  ZZI  67 1
M  ZZM  68 5
M  ZZI  68 1
M  END
> <IX>
1

> <NAME>
VHL_4QNQ_18.pdb

> <Score>
0.367164

> <Natom>
68

> <Nflex>
8

> <Hbond>
-5.166831

> <Hphob>
-6.897098

> <VwInt>
-26.76419

> <Dsolv>
22.507391

> <SolEl>
26.470251

> <Eintl>
9.455973

> <RecConf>
ND

> <projPath>
VHL_maps/

> <NAME_>
VHL_4QNQ_18.pdb

$$$$
