VHL_1ERR_32.pdb
  MOLSOFT 04032206363D

 68 69  0  0  1  0  0  0  0  0999 V2000
   15.6425    5.1298   -9.3425 O   0  0  0  0  0  0  0  0  0  0  0  0
   14.6631    5.3359   -8.6406 C   0  0  0  0  0  0  0  0  0  0  0  0
   14.4320    4.7099   -7.4353 N   0  0  0  0  0  0  0  0  0  0  0  0
   15.4196    3.8240   -6.8178 C   0  0  1  0  0  0  0  0  0  0  0  0
   16.2983    4.5653   -5.7622 C   0  0  0  0  0  0  0  0  0  0  0  0
   17.1572    5.6379   -6.4548 C   0  0  0  0  0  0  0  0  0  0  0  0
   17.2613    3.5842   -5.0769 C   0  0  0  0  0  0  0  0  0  0  0  0
   15.4526    5.2577   -4.6773 C   0  0  0  0  0  0  0  0  0  0  0  0
   14.6532    2.6201   -6.2407 C   0  0  0  0  0  0  0  0  0  0  0  0
   13.7232    2.7665   -5.4584 O   0  0  0  0  0  0  0  0  0  0  0  0
   15.0668    1.3528   -6.6508 N   0  0  0  0  0  0  0  0  0  0  0  0
   14.4738    0.1391   -6.1062 C   0  0  2  0  0  0  0  0  0  0  0  0
   15.1554   -0.2163   -4.7814 C   0  0  0  0  0  0  0  0  0  0  0  0
   16.1456    0.3672   -4.3619 O   0  0  0  0  0  0  0  0  0  0  0  0
   14.5941   -1.3031   -4.1407 N   0  0  0  0  0  0  0  0  0  0  0  0
   15.2566   -1.9415   -3.0150 C   0  0  1  0  0  0  0  0  0  0  0  0
   14.2538   -2.1107   -1.8777 C   0  0  0  0  0  0  0  0  0  0  0  0
   15.9403   -3.2101   -3.4936 C   0  0  0  0  0  0  0  0  0  0  0  0
   15.6728   -4.4716   -2.9732 C   0  0  0  0  0  0  0  0  0  0  0  0
   16.3161   -5.5887   -3.4689 C   0  0  0  0  0  0  0  0  0  0  0  0
   17.2315   -5.5209   -4.5121 C   0  0  0  0  0  0  0  0  0  0  0  0
   17.8698   -6.7923   -5.0472 C   0  0  0  0  0  0  0  0  0  0  0  0
   19.1823   -6.5831   -5.8053 C   0  0  0  0  0  0  0  0  0  0  0  0
   16.8856   -7.5340   -5.9428 C   0  0  0  0  0  0  0  0  0  0  0  0
   17.5067   -4.2599   -5.0239 C   0  0  0  0  0  0  0  0  0  0  0  0
   16.8912   -3.1355   -4.5105 C   0  0  0  0  0  0  0  0  0  0  0  0
   14.7803   -0.9138   -7.1637 C   0  0  0  0  0  0  0  0  0  0  0  0
   16.1359   -0.4841   -7.6886 C   0  0  1  0  0  0  0  0  0  0  0  0
   16.3970   -0.9882   -8.9987 O   0  0  0  0  0  0  0  0  0  0  0  0
   16.0478    1.0328   -7.6719 C   0  0  0  0  0  0  0  0  0  0  0  0
   13.5760    6.3045   -9.0175 C   0  0  0  0  0  0  0  0  0  0  0  0
   13.5512    4.8703   -6.9530 H   0  0  0  0  0  0  0  0  0  0  0  0
   16.0757    3.4803   -7.6202 H   0  0  0  0  0  0  0  0  0  0  0  0
   17.7603    5.2090   -7.2621 H   0  0  0  0  0  0  0  0  0  0  0  0
   17.8493    6.1123   -5.7515 H   0  0  0  0  0  0  0  0  0  0  0  0
   16.5479    6.4392   -6.8832 H   0  0  0  0  0  0  0  0  0  0  0  0
   17.8696    3.0404   -5.8066 H   0  0  0  0  0  0  0  0  0  0  0  0
   16.7266    2.8512   -4.4687 H   0  0  0  0  0  0  0  0  0  0  0  0
   17.9514    4.1045   -4.4046 H   0  0  0  0  0  0  0  0  0  0  0  0
   14.8719    4.5430   -4.0876 H   0  0  0  0  0  0  0  0  0  0  0  0
   14.7520    5.9825   -5.1035 H   0  0  0  0  0  0  0  0  0  0  0  0
   16.0870    5.8049   -3.9725 H   0  0  0  0  0  0  0  0  0  0  0  0
   13.3981    0.2672   -5.9356 H   0  0  0  0  0  0  0  0  0  0  0  0
   13.7859   -1.7662   -4.5410 H   0  0  0  0  0  0  0  0  0  0  0  0
   16.0454   -1.2776   -2.6443 H   0  0  0  0  0  0  0  0  0  0  0  0
   14.7151   -2.5612   -0.9931 H   0  0  0  0  0  0  0  0  0  0  0  0
   13.4119   -2.7346   -2.1850 H   0  0  0  0  0  0  0  0  0  0  0  0
   13.8386   -1.1428   -1.5795 H   0  0  0  0  0  0  0  0  0  0  0  0
   14.9570   -4.6137   -2.1709 H   0  0  0  0  0  0  0  0  0  0  0  0
   16.0883   -6.5435   -3.0192 H   0  0  0  0  0  0  0  0  0  0  0  0
   18.0992   -7.4337   -4.1908 H   0  0  0  0  0  0  0  0  0  0  0  0
   19.0335   -6.0811   -6.7662 H   0  0  0  0  0  0  0  0  0  0  0  0
   19.6632   -7.5435   -6.0114 H   0  0  0  0  0  0  0  0  0  0  0  0
   19.8859   -5.9835   -5.2277 H   0  0  0  0  0  0  0  0  0  0  0  0
   16.0464   -7.9258   -5.3754 H   0  0  0  0  0  0  0  0  0  0  0  0
   17.3560   -8.3813   -6.4401 H   0  0  0  0  0  0  0  0  0  0  0  0
   16.4707   -6.8786   -6.7072 H   0  0  0  0  0  0  0  0  0  0  0  0
   18.2165   -4.1284   -5.8323 H   0  0  0  0  0  0  0  0  0  0  0  0
   17.1644   -2.1755   -4.9347 H   0  0  0  0  0  0  0  0  0  0  0  0
   14.7985   -1.9434   -6.7943 H   0  0  0  0  0  0  0  0  0  0  0  0
   14.0325   -0.8715   -7.9574 H   0  0  0  0  0  0  0  0  0  0  0  0
   16.9246   -0.8346   -7.0140 H   0  0  0  0  0  0  0  0  0  0  0  0
   17.3603   -0.8816   -9.1146 H   0  0  0  0  0  0  0  0  0  0  0  0
   15.6988    1.4318   -8.6282 H   0  0  0  0  0  0  0  0  0  0  0  0
   17.0143    1.4889   -7.4391 H   0  0  0  0  0  0  0  0  0  0  0  0
   12.7256    5.7559   -9.4256 H   0  0  0  0  0  0  0  0  0  0  0  0
   13.9497    7.0062   -9.7671 H   0  0  0  0  0  0  0  0  0  0  0  0
   13.2495    6.8760   -8.1430 H   0  0  0  0  0  0  0  0  0  0  0  0
  1  2  2  0  0  0  0
  2  3  1  0  0  0  0
  2 31  1  0  0  0  0
  4  3  1  0  0  0  0
  3 32  1  0  0  0  0
  4  5  1  0  0  0  0
  4 33  1  0  0  0  0
  4  9  1  0  0  0  0
  5  6  1  0  0  0  0
  5  7  1  0  0  0  0
  5  8  1  0  0  0  0
  6 34  1  0  0  0  0
  6 35  1  0  0  0  0
  6 36  1  0  0  0  0
  7 37  1  0  0  0  0
  7 38  1  0  0  0  0
  7 39  1  0  0  0  0
  8 40  1  0  0  0  0
  8 41  1  0  0  0  0
  8 42  1  0  0  0  0
  9 10  2  0  0  0  0
  9 11  1  0  0  0  0
 11 30  1  0  0  0  0
 12 11  1  0  0  0  0
 12 27  1  0  0  0  0
 12 43  1  0  0  0  0
 12 13  1  0  0  0  0
 13 14  2  0  0  0  0
 13 15  1  0  0  0  0
 15 44  1  0  0  0  0
 16 15  1  0  0  0  0
 16 45  1  0  0  0  0
 16 17  1  0  0  0  0
 16 18  1  0  0  0  0
 17 46  1  0  0  0  0
 17 47  1  0  0  0  0
 17 48  1  0  0  0  0
 18 19  1  0  0  0  0
 18 26  2  0  0  0  0
 19 49  1  0  0  0  0
 19 20  2  0  0  0  0
 20 50  1  0  0  0  0
 20 21  1  0  0  0  0
 21 22  1  0  0  0  0
 21 25  2  0  0  0  0
 22 51  1  0  0  0  0
 22 24  1  0  0  0  0
 22 23  1  0  0  0  0
 23 52  1  0  0  0  0
 23 53  1  0  0  0  0
 23 54  1  0  0  0  0
 24 55  1  0  0  0  0
 24 56  1  0  0  0  0
 24 57  1  0  0  0  0
 25 58  1  0  0  0  0
 25 26  1  0  0  0  0
 26 59  1  0  0  0  0
 28 27  1  0  0  0  0
 27 60  1  0  0  0  0
 27 61  1  0  0  0  0
 28 30  1  0  0  0  0
 28 62  1  0  0  0  0
 28 29  1  0  0  0  0
 29 63  1  0  0  0  0
 30 64  1  0  0  0  0
 30 65  1  0  0  0  0
 31 66  1  0  0  0  0
 31 67  1  0  0  0  0
 31 68  1  0  0  0  0
M  ZZC   1 o1
M  ZZC   2 c1
M  ZZC   3 n1
M  ZZC   4 c2
M  ZZC   5 c3
M  ZZC   6 c4
M  ZZC   7 c5
M  ZZC   8 c6
M  ZZC   9 c7
M  ZZC  10 o2
M  ZZC  11 n2
M  ZZC  12 c8
M  ZZC  13 c9
M  ZZC  14 o3
M  ZZC  15 n3
M  ZZC  16 c10
M  ZZC  17 c11
M  ZZC  18 c12
M  ZZC  19 c13
M  ZZC  20 c14
M  ZZC  21 c15
M  ZZC  22 c16
M  ZZC  23 c17
M  ZZC  24 c18
M  ZZC  25 c19
M  ZZC  26 c20
M  ZZC  27 c21
M  ZZC  28 c22
M  ZZC  29 o4
M  ZZC  30 c23
M  ZZC  31 c24
M  ZZC  32 h11
M  ZZC  33 h21
M  ZZC  34 h41
M  ZZC  35 h42
M  ZZC  36 h43
M  ZZC  37 h51
M  ZZC  38 h52
M  ZZC  39 h53
M  ZZC  40 h61
M  ZZC  41 h62
M  ZZC  42 h63
M  ZZC  43 h81
M  ZZC  44 h31
M  ZZC  45 h101
M  ZZC  46 h111
M  ZZC  47 h112
M  ZZC  48 h113
M  ZZC  49 h131
M  ZZC  50 h141
M  ZZC  51 h161
M  ZZC  52 h171
M  ZZC  53 h172
M  ZZC  54 h173
M  ZZC  55 h181
M  ZZC  56 h182
M  ZZC  57 h183
M  ZZC  58 h191
M  ZZC  59 h201
M  ZZC  60 h211
M  ZZC  61 h212
M  ZZC  62 h221
M  ZZC  63 h01
M  ZZC  64 h231
M  ZZC  65 h232
M  ZZC  66 h241
M  ZZC  67 h242
M  ZZC  68 h243
M  ZZM   1 7
M  ZZI   1 81
M  ZZM   2 3
M  ZZI   2 121
M  ZZM   3 10
M  ZZI   3 211
M  ZZM   4 1
M  ZZI   4 113
M  ZZM   5 1
M  ZZI   5 110
M  ZZM   6 1
M  ZZI   6 111
M  ZZM   7 1
M  ZZI   7 111
M  ZZM   8 1
M  ZZI   8 111
M  ZZM   9 3
M  ZZI   9 121
M  ZZM  10 7
M  ZZI  10 81
M  ZZM  11 10
M  ZZI  11 192
M  ZZM  12 1
M  ZZI  12 113
M  ZZM  13 3
M  ZZI  13 121
M  ZZM  14 7
M  ZZI  14 81
M  ZZM  15 10
M  ZZI  15 211
M  ZZM  16 1
M  ZZI  16 113
M  ZZM  17 1
M  ZZI  17 111
M  ZZM  18 37
M  ZZI  18 124
M  ZZM  19 37
M  ZZI  19 125
M  ZZM  20 37
M  ZZI  20 125
M  ZZM  21 37
M  ZZI  21 124
M  ZZM  22 1
M  ZZI  22 113
M  ZZM  23 1
M  ZZI  23 111
M  ZZM  24 1
M  ZZI  24 111
M  ZZM  25 37
M  ZZI  25 125
M  ZZM  26 37
M  ZZI  26 125
M  ZZM  27 1
M  ZZI  27 112
M  ZZM  28 1
M  ZZI  28 113
M  ZZM  29 6
M  ZZI  29 60
M  ZZM  30 1
M  ZZI  30 112
M  ZZM  31 1
M  ZZI  31 111
M  ZZM  32 28
M  ZZI  32 11
M  ZZM  33 5
M  ZZI  33 1
M  ZZM  34 5
M  ZZI  34 1
M  ZZM  35 5
M  ZZI  35 1
M  ZZM  36 5
M  ZZI  36 1
M  ZZM  37 5
M  ZZI  37 1
M  ZZM  38 5
M  ZZI  38 1
M  ZZM  39 5
M  ZZI  39 1
M  ZZM  40 5
M  ZZI  40 1
M  ZZM  41 5
M  ZZI  41 1
M  ZZM  42 5
M  ZZI  42 1
M  ZZM  43 5
M  ZZI  43 1
M  ZZM  44 28
M  ZZI  44 11
M  ZZM  45 5
M  ZZI  45 1
M  ZZM  46 5
M  ZZI  46 1
M  ZZM  47 5
M  ZZI  47 1
M  ZZM  48 5
M  ZZI  48 1
M  ZZM  49 5
M  ZZI  49 1
M  ZZM  50 5
M  ZZI  50 1
M  ZZM  51 5
M  ZZI  51 1
M  ZZM  52 5
M  ZZI  52 1
M  ZZM  53 5
M  ZZI  53 1
M  ZZM  54 5
M  ZZI  54 1
M  ZZM  55 5
M  ZZI  55 1
M  ZZM  56 5
M  ZZI  56 1
M  ZZM  57 5
M  ZZI  57 1
M  ZZM  58 5
M  ZZI  58 1
M  ZZM  59 5
M  ZZI  59 1
M  ZZM  60 5
M  ZZI  60 1
M  ZZM  61 5
M  ZZI  61 1
M  ZZM  62 5
M  ZZI  62 1
M  ZZM  63 21
M  ZZI  63 20
M  ZZM  64 5
M  ZZI  64 1
M  ZZM  65 5
M  ZZI  65 1
M  ZZM  66 5
M  ZZI  66 1
M  ZZM  67 5
M  ZZI  67 1
M  ZZM  68 5
M  ZZI  68 1
M  END
> <IX>
1

> <NAME>
VHL_1ERR_32.pdb

> <Score>
-12.373495

> <Natom>
68

> <Nflex>
9

> <Hbond>
-6.675839

> <Hphob>
-6.13556

> <VwInt>
-29.882394

> <Dsolv>
19.979101

> <SolEl>
20.819797

> <Eintl>
7.307008

> <RecConf>
ND

> <projPath>
VHL_maps/

> <NAME_>
VHL_1ERR_32.pdb

$$$$
