VHL_5G0J_10.pdb
  MOLSOFT 04032206423D

 65 67  0  0  1  0  0  0  0  0999 V2000
   18.0934   -6.7289   -5.1164 C   0  0  0  0  0  0  0  0  0  0  0  0
   16.8942   -5.8295   -4.9914 C   0  0  0  0  0  0  0  0  0  0  0  0
   15.8087   -6.1706   -5.4286 O   0  0  0  0  0  0  0  0  0  0  0  0
   17.1496   -4.6515   -4.3177 N   0  0  0  0  0  0  0  0  0  0  0  0
   16.1570   -3.5940   -4.0655 C   0  0  1  0  0  0  0  0  0  0  0  0
   15.8586   -3.4298   -2.5463 C   0  0  0  0  0  0  0  0  0  0  0  0
   14.7423   -2.4133   -2.2788 C   0  0  0  0  0  0  0  0  0  0  0  0
   17.0942   -2.9804   -1.7531 C   0  0  0  0  0  0  0  0  0  0  0  0
   15.3719   -4.7791   -2.0015 C   0  0  0  0  0  0  0  0  0  0  0  0
   16.7197   -2.3530   -4.7886 C   0  0  0  0  0  0  0  0  0  0  0  0
   17.9227   -2.1211   -4.7865 O   0  0  0  0  0  0  0  0  0  0  0  0
   15.8291   -1.5277   -5.4811 N   0  0  0  0  0  0  0  0  0  0  0  0
   16.3215   -0.5844   -6.4738 C   0  0  2  0  0  0  0  0  0  0  0  0
   16.7208    0.7655   -5.8709 C   0  0  0  0  0  0  0  0  0  0  0  0
   16.1867    1.2353   -4.8752 O   0  0  0  0  0  0  0  0  0  0  0  0
   17.6872    1.4235   -6.6102 N   0  0  0  0  0  0  0  0  0  0  0  0
   18.1482    2.7587   -6.2660 C   0  0  0  0  0  0  0  0  0  0  0  0
   19.6021    3.0455   -6.5710 C   0  0  0  0  0  0  0  0  0  0  0  0
   20.4553    2.1333   -7.1839 C   0  0  0  0  0  0  0  0  0  0  0  0
   21.7807    2.4438   -7.4179 C   0  0  0  0  0  0  0  0  0  0  0  0
   22.3199    3.6634   -7.0369 C   0  0  0  0  0  0  0  0  0  0  0  0
   23.7423    3.9270   -7.2288 C   0  0  0  0  0  0  0  0  0  0  0  0
   24.5365    3.8749   -8.3691 C   0  0  0  0  0  0  0  0  0  0  0  0
   24.1025    3.5969   -9.7563 C   0  0  0  0  0  0  0  0  0  0  0  0
   25.8804    4.1059   -8.1583 N   0  0  0  0  0  0  0  0  0  0  0  0
   26.0959    4.3483   -6.8858 C   0  0  0  0  0  0  0  0  0  0  0  0
   24.7239    4.3247   -5.8709 S   0  0  0  0  0  0  0  0  0  0  0  0
   21.4708    4.5869   -6.4382 C   0  0  0  0  0  0  0  0  0  0  0  0
   20.1361    4.2821   -6.2164 C   0  0  0  0  0  0  0  0  0  0  0  0
   15.1554   -0.4325   -7.4367 C   0  0  0  0  0  0  0  0  0  0  0  0
   13.9339   -0.5615   -6.5419 C   0  0  1  0  0  0  0  0  0  0  0  0
   12.8359   -1.1004   -7.2737 O   0  0  0  0  0  0  0  0  0  0  0  0
   14.3769   -1.5181   -5.4433 C   0  0  0  0  0  0  0  0  0  0  0  0
   19.0134   -6.1459   -5.2211 H   0  0  0  0  0  0  0  0  0  0  0  0
   17.9829   -7.3612   -6.0025 H   0  0  0  0  0  0  0  0  0  0  0  0
   18.1553   -7.3631   -4.2289 H   0  0  0  0  0  0  0  0  0  0  0  0
   18.1096   -4.4629   -4.0512 H   0  0  0  0  0  0  0  0  0  0  0  0
   15.2344   -3.9005   -4.5564 H   0  0  0  0  0  0  0  0  0  0  0  0
   15.0404   -1.4036   -2.5801 H   0  0  0  0  0  0  0  0  0  0  0  0
   14.4933   -2.3656   -1.2143 H   0  0  0  0  0  0  0  0  0  0  0  0
   13.8362   -2.6504   -2.8430 H   0  0  0  0  0  0  0  0  0  0  0  0
   16.8794   -2.9193   -0.6813 H   0  0  0  0  0  0  0  0  0  0  0  0
   17.4441   -1.9930   -2.0695 H   0  0  0  0  0  0  0  0  0  0  0  0
   17.9243   -3.6748   -1.8706 H   0  0  0  0  0  0  0  0  0  0  0  0
   15.0916   -4.6990   -0.9486 H   0  0  0  0  0  0  0  0  0  0  0  0
   16.1396   -5.5512   -2.0807 H   0  0  0  0  0  0  0  0  0  0  0  0
   14.4934   -5.1392   -2.5464 H   0  0  0  0  0  0  0  0  0  0  0  0
   17.1919   -1.0090   -6.9816 H   0  0  0  0  0  0  0  0  0  0  0  0
   18.0439    0.9768   -7.4484 H   0  0  0  0  0  0  0  0  0  0  0  0
   17.5191    3.4558   -6.8300 H   0  0  0  0  0  0  0  0  0  0  0  0
   17.9657    2.9279   -5.1994 H   0  0  0  0  0  0  0  0  0  0  0  0
   20.1141    1.1473   -7.4735 H   0  0  0  0  0  0  0  0  0  0  0  0
   22.4040    1.6931   -7.8863 H   0  0  0  0  0  0  0  0  0  0  0  0
   24.0188    2.5207   -9.9226 H   0  0  0  0  0  0  0  0  0  0  0  0
   24.8240    3.9903  -10.4779 H   0  0  0  0  0  0  0  0  0  0  0  0
   23.1363    4.0619   -9.9691 H   0  0  0  0  0  0  0  0  0  0  0  0
   27.0835    4.5522   -6.4968 H   0  0  0  0  0  0  0  0  0  0  0  0
   21.8443    5.5590   -6.1302 H   0  0  0  0  0  0  0  0  0  0  0  0
   19.5055    5.0266   -5.7389 H   0  0  0  0  0  0  0  0  0  0  0  0
   15.1602    0.5131   -7.9889 H   0  0  0  0  0  0  0  0  0  0  0  0
   15.1671   -1.2384   -8.1798 H   0  0  0  0  0  0  0  0  0  0  0  0
   13.6483    0.4153   -6.1339 H   0  0  0  0  0  0  0  0  0  0  0  0
   12.0153   -0.8470   -6.8151 H   0  0  0  0  0  0  0  0  0  0  0  0
   13.9746   -2.5254   -5.5519 H   0  0  0  0  0  0  0  0  0  0  0  0
   14.0472   -1.1311   -4.4789 H   0  0  0  0  0  0  0  0  0  0  0  0
  1 34  1  0  0  0  0
  1 35  1  0  0  0  0
  1 36  1  0  0  0  0
  1  2  1  0  0  0  0
  2  3  2  0  0  0  0
  2  4  1  0  0  0  0
  4 37  1  0  0  0  0
  5  4  1  0  0  0  0
  5 38  1  0  0  0  0
  5  6  1  0  0  0  0
  5 10  1  0  0  0  0
  6  7  1  0  0  0  0
  6  8  1  0  0  0  0
  6  9  1  0  0  0  0
  7 39  1  0  0  0  0
  7 40  1  0  0  0  0
  7 41  1  0  0  0  0
  8 42  1  0  0  0  0
  8 43  1  0  0  0  0
  8 44  1  0  0  0  0
  9 45  1  0  0  0  0
  9 46  1  0  0  0  0
  9 47  1  0  0  0  0
 10 11  2  0  0  0  0
 10 12  1  0  0  0  0
 12 33  1  0  0  0  0
 13 12  1  0  0  0  0
 13 30  1  0  0  0  0
 13 48  1  0  0  0  0
 13 14  1  0  0  0  0
 14 15  2  0  0  0  0
 14 16  1  0  0  0  0
 16 49  1  0  0  0  0
 16 17  1  0  0  0  0
 17 50  1  0  0  0  0
 17 51  1  0  0  0  0
 17 18  1  0  0  0  0
 18 19  1  0  0  0  0
 18 29  2  0  0  0  0
 19 52  1  0  0  0  0
 19 20  2  0  0  0  0
 20 53  1  0  0  0  0
 20 21  1  0  0  0  0
 21 28  2  0  0  0  0
 21 22  1  0  0  0  0
 22 23  2  0  0  0  0
 22 27  1  0  0  0  0
 23 24  1  0  0  0  0
 23 25  1  0  0  0  0
 24 54  1  0  0  0  0
 24 55  1  0  0  0  0
 24 56  1  0  0  0  0
 25 26  2  0  0  0  0
 26 57  1  0  0  0  0
 26 27  1  0  0  0  0
 28 58  1  0  0  0  0
 28 29  1  0  0  0  0
 29 59  1  0  0  0  0
 31 30  1  0  0  0  0
 30 60  1  0  0  0  0
 30 61  1  0  0  0  0
 31 33  1  0  0  0  0
 31 62  1  0  0  0  0
 31 32  1  0  0  0  0
 32 63  1  0  0  0  0
 33 64  1  0  0  0  0
 33 65  1  0  0  0  0
M  ZZC   1 c1
M  ZZC   2 c2
M  ZZC   3 o1
M  ZZC   4 n1
M  ZZC   5 c3
M  ZZC   6 c4
M  ZZC   7 c5
M  ZZC   8 c6
M  ZZC   9 c7
M  ZZC  10 c8
M  ZZC  11 o2
M  ZZC  12 n2
M  ZZC  13 c9
M  ZZC  14 c10
M  ZZC  15 o3
M  ZZC  16 n3
M  ZZC  17 c11
M  ZZC  18 c12
M  ZZC  19 c13
M  ZZC  20 c14
M  ZZC  21 c15
M  ZZC  22 c16
M  ZZC  23 c17
M  ZZC  24 c18
M  ZZC  25 n4
M  ZZC  26 c19
M  ZZC  27 s1
M  ZZC  28 c20
M  ZZC  29 c21
M  ZZC  30 c22
M  ZZC  31 c23
M  ZZC  32 o4
M  ZZC  33 c24
M  ZZC  34 h11
M  ZZC  35 h12
M  ZZC  36 h13
M  ZZC  37 h01
M  ZZC  38 h31
M  ZZC  39 h51
M  ZZC  40 h52
M  ZZC  41 h53
M  ZZC  42 h61
M  ZZC  43 h62
M  ZZC  44 h63
M  ZZC  45 h71
M  ZZC  46 h72
M  ZZC  47 h73
M  ZZC  48 h91
M  ZZC  49 h02
M  ZZC  50 h111
M  ZZC  51 h112
M  ZZC  52 h131
M  ZZC  53 h141
M  ZZC  54 h181
M  ZZC  55 h182
M  ZZC  56 h183
M  ZZC  57 h191
M  ZZC  58 h201
M  ZZC  59 h211
M  ZZC  60 h221
M  ZZC  61 h222
M  ZZC  62 h231
M  ZZC  63 h41
M  ZZC  64 h241
M  ZZC  65 h242
M  ZZM   1 1
M  ZZI   1 111
M  ZZM   2 3
M  ZZI   2 121
M  ZZM   3 7
M  ZZI   3 81
M  ZZM   4 10
M  ZZI   4 211
M  ZZM   5 1
M  ZZI   5 113
M  ZZM   6 1
M  ZZI   6 110
M  ZZM   7 1
M  ZZI   7 111
M  ZZM   8 1
M  ZZI   8 111
M  ZZM   9 1
M  ZZI   9 111
M  ZZM  10 3
M  ZZI  10 121
M  ZZM  11 7
M  ZZI  11 81
M  ZZM  12 10
M  ZZI  12 192
M  ZZM  13 1
M  ZZI  13 113
M  ZZM  14 3
M  ZZI  14 121
M  ZZM  15 7
M  ZZI  15 81
M  ZZM  16 10
M  ZZI  16 211
M  ZZM  17 1
M  ZZI  17 112
M  ZZM  18 37
M  ZZI  18 124
M  ZZM  19 37
M  ZZI  19 125
M  ZZM  20 37
M  ZZI  20 125
M  ZZM  21 37
M  ZZI  21 124
M  ZZM  22 63
M  ZZI  22 104
M  ZZM  23 64
M  ZZI  23 105
M  ZZM  24 1
M  ZZI  24 111
M  ZZM  25 66
M  ZZI  25 222
M  ZZM  26 63
M  ZZI  26 104
M  ZZM  27 44
M  ZZI  27 248
M  ZZM  28 37
M  ZZI  28 125
M  ZZM  29 37
M  ZZI  29 125
M  ZZM  30 1
M  ZZI  30 112
M  ZZM  31 1
M  ZZI  31 113
M  ZZM  32 6
M  ZZI  32 60
M  ZZM  33 1
M  ZZI  33 112
M  ZZM  34 5
M  ZZI  34 1
M  ZZM  35 5
M  ZZI  35 1
M  ZZM  36 5
M  ZZI  36 1
M  ZZM  37 28
M  ZZI  37 11
M  ZZM  38 5
M  ZZI  38 1
M  ZZM  39 5
M  ZZI  39 1
M  ZZM  40 5
M  ZZI  40 1
M  ZZM  41 5
M  ZZI  41 1
M  ZZM  42 5
M  ZZI  42 1
M  ZZM  43 5
M  ZZI  43 1
M  ZZM  44 5
M  ZZI  44 1
M  ZZM  45 5
M  ZZI  45 1
M  ZZM  46 5
M  ZZI  46 1
M  ZZM  47 5
M  ZZI  47 1
M  ZZM  48 5
M  ZZI  48 1
M  ZZM  49 28
M  ZZI  49 11
M  ZZM  50 5
M  ZZI  50 1
M  ZZM  51 5
M  ZZI  51 1
M  ZZM  52 5
M  ZZI  52 1
M  ZZM  53 5
M  ZZI  53 1
M  ZZM  54 5
M  ZZI  54 1
M  ZZM  55 5
M  ZZI  55 1
M  ZZM  56 5
M  ZZI  56 1
M  ZZM  57 5
M  ZZI  57 1
M  ZZM  58 5
M  ZZI  58 1
M  ZZM  59 5
M  ZZI  59 1
M  ZZM  60 5
M  ZZI  60 1
M  ZZM  61 5
M  ZZI  61 1
M  ZZM  62 5
M  ZZI  62 1
M  ZZM  63 21
M  ZZI  63 20
M  ZZM  64 5
M  ZZI  64 1
M  ZZM  65 5
M  ZZI  65 1
M  END
> <IX>
1

> <NAME>
VHL_5G0J_10.pdb

> <Score>
-12.612614

> <Natom>
65

> <Nflex>
8

> <Hbond>
-5.062866

> <Hphob>
-6.451724

> <VwInt>
-28.581102

> <Dsolv>
16.981607

> <SolEl>
15.566834

> <Eintl>
8.816465

> <RecConf>
ND

> <projPath>
VHL_maps/

> <NAME_>
VHL_5G0J_10.pdb

$$$$
