VHL_6NY4_11.pdb
  MOLSOFT 04032206423D

 65 67  0  0  1  0  0  0  0  0999 V2000
   18.4272   -7.0403   -5.3927 C   0  0  0  0  0  0  0  0  0  0  0  0
   17.2429   -6.1148   -5.3451 C   0  0  0  0  0  0  0  0  0  0  0  0
   16.1469   -6.4797   -5.7403 O   0  0  0  0  0  0  0  0  0  0  0  0
   17.5280   -4.8734   -4.8092 N   0  0  0  0  0  0  0  0  0  0  0  0
   16.5484   -3.7885   -4.7038 C   0  0  1  0  0  0  0  0  0  0  0  0
   15.8967   -3.6750   -3.2853 C   0  0  0  0  0  0  0  0  0  0  0  0
   15.4539   -5.0517   -2.7686 C   0  0  0  0  0  0  0  0  0  0  0  0
   14.6408   -2.7909   -3.3410 C   0  0  0  0  0  0  0  0  0  0  0  0
   16.8607   -3.0769   -2.2483 C   0  0  0  0  0  0  0  0  0  0  0  0
   17.2489   -2.4894   -5.1422 C   0  0  0  0  0  0  0  0  0  0  0  0
   18.3950   -2.2407   -4.7971 O   0  0  0  0  0  0  0  0  0  0  0  0
   16.5128   -1.5544   -5.8701 N   0  0  0  0  0  0  0  0  0  0  0  0
   17.0473   -0.2219   -6.1169 C   0  0  2  0  0  0  0  0  0  0  0  0
   17.1045    0.6398   -4.8590 C   0  0  0  0  0  0  0  0  0  0  0  0
   16.3419    0.5005   -3.9122 O   0  0  0  0  0  0  0  0  0  0  0  0
   18.0265    1.6634   -4.9637 N   0  0  0  0  0  0  0  0  0  0  0  0
   17.9971    2.8046   -4.0759 C   0  0  0  0  0  0  0  0  0  0  0  0
   17.0782    3.8468   -4.6558 C   0  0  0  0  0  0  0  0  0  0  0  0
   17.5392    4.7282   -5.6269 C   0  0  0  0  0  0  0  0  0  0  0  0
   16.6655    5.5820   -6.2749 C   0  0  0  0  0  0  0  0  0  0  0  0
   15.3056    5.5743   -5.9753 C   0  0  0  0  0  0  0  0  0  0  0  0
   14.3734    6.4126   -6.7175 C   0  0  0  0  0  0  0  0  0  0  0  0
   13.3732    7.2790   -6.2899 C   0  0  0  0  0  0  0  0  0  0  0  0
   12.9843    7.5891   -4.8940 C   0  0  0  0  0  0  0  0  0  0  0  0
   12.6778    7.9079   -7.3023 N   0  0  0  0  0  0  0  0  0  0  0  0
   13.1224    7.4905   -8.4650 C   0  0  0  0  0  0  0  0  0  0  0  0
   14.3992    6.3685   -8.4375 S   0  0  0  0  0  0  0  0  0  0  0  0
   14.8517    4.7196   -4.9763 C   0  0  0  0  0  0  0  0  0  0  0  0
   15.7261    3.8668   -4.3263 C   0  0  0  0  0  0  0  0  0  0  0  0
   16.0845    0.4270   -7.1076 C   0  0  0  0  0  0  0  0  0  0  0  0
   15.4261   -0.7482   -7.7997 C   0  0  1  0  0  0  0  0  0  0  0  0
   16.2191   -1.1723   -8.9174 O   0  0  0  0  0  0  0  0  0  0  0  0
   15.3752   -1.8262   -6.7249 C   0  0  0  0  0  0  0  0  0  0  0  0
   19.3665   -6.5039   -5.2317 H   0  0  0  0  0  0  0  0  0  0  0  0
   18.4689   -7.5171   -6.3753 H   0  0  0  0  0  0  0  0  0  0  0  0
   18.3092   -7.8056   -4.6221 H   0  0  0  0  0  0  0  0  0  0  0  0
   18.4720   -4.6898   -4.4905 H   0  0  0  0  0  0  0  0  0  0  0  0
   15.7816   -4.0218   -5.4297 H   0  0  0  0  0  0  0  0  0  0  0  0
   14.9533   -4.9760   -1.7983 H   0  0  0  0  0  0  0  0  0  0  0  0
   16.2976   -5.7340   -2.6360 H   0  0  0  0  0  0  0  0  0  0  0  0
   14.7481   -5.5199   -3.4554 H   0  0  0  0  0  0  0  0  0  0  0  0
   14.8742   -1.7601   -3.6160 H   0  0  0  0  0  0  0  0  0  0  0  0
   14.1357   -2.7508   -2.3705 H   0  0  0  0  0  0  0  0  0  0  0  0
   13.9154   -3.1723   -4.0662 H   0  0  0  0  0  0  0  0  0  0  0  0
   16.4268   -3.0956   -1.2431 H   0  0  0  0  0  0  0  0  0  0  0  0
   17.1051   -2.0331   -2.4661 H   0  0  0  0  0  0  0  0  0  0  0  0
   17.7989   -3.6328   -2.2049 H   0  0  0  0  0  0  0  0  0  0  0  0
   18.0511   -0.3212   -6.5349 H   0  0  0  0  0  0  0  0  0  0  0  0
   18.6547    1.6994   -5.7591 H   0  0  0  0  0  0  0  0  0  0  0  0
   17.6647    2.4986   -3.0779 H   0  0  0  0  0  0  0  0  0  0  0  0
   19.0185    3.1888   -3.9842 H   0  0  0  0  0  0  0  0  0  0  0  0
   18.5873    4.7313   -5.9120 H   0  0  0  0  0  0  0  0  0  0  0  0
   17.0607    6.2461   -7.0384 H   0  0  0  0  0  0  0  0  0  0  0  0
   12.3289    6.8108   -4.4928 H   0  0  0  0  0  0  0  0  0  0  0  0
   12.4406    8.5354   -4.8443 H   0  0  0  0  0  0  0  0  0  0  0  0
   13.8599    7.6803   -4.2451 H   0  0  0  0  0  0  0  0  0  0  0  0
   12.7088    7.8274   -9.3996 H   0  0  0  0  0  0  0  0  0  0  0  0
   13.7962    4.6785   -4.7230 H   0  0  0  0  0  0  0  0  0  0  0  0
   15.3338    3.1778   -3.5833 H   0  0  0  0  0  0  0  0  0  0  0  0
   15.3248    1.0196   -6.5845 H   0  0  0  0  0  0  0  0  0  0  0  0
   16.6089    1.0920   -7.8021 H   0  0  0  0  0  0  0  0  0  0  0  0
   14.4308   -0.4974   -8.1693 H   0  0  0  0  0  0  0  0  0  0  0  0
   17.1559   -1.0897   -8.6597 H   0  0  0  0  0  0  0  0  0  0  0  0
   15.4445   -2.8309   -7.1484 H   0  0  0  0  0  0  0  0  0  0  0  0
   14.4723   -1.7344   -6.1136 H   0  0  0  0  0  0  0  0  0  0  0  0
  1 34  1  0  0  0  0
  1 35  1  0  0  0  0
  1 36  1  0  0  0  0
  1  2  1  0  0  0  0
  2  3  2  0  0  0  0
  2  4  1  0  0  0  0
  4 37  1  0  0  0  0
  5  4  1  0  0  0  0
  5 38  1  0  0  0  0
  5  6  1  0  0  0  0
  5 10  1  0  0  0  0
  6  7  1  0  0  0  0
  6  8  1  0  0  0  0
  6  9  1  0  0  0  0
  7 39  1  0  0  0  0
  7 40  1  0  0  0  0
  7 41  1  0  0  0  0
  8 42  1  0  0  0  0
  8 43  1  0  0  0  0
  8 44  1  0  0  0  0
  9 45  1  0  0  0  0
  9 46  1  0  0  0  0
  9 47  1  0  0  0  0
 10 11  2  0  0  0  0
 10 12  1  0  0  0  0
 12 33  1  0  0  0  0
 13 12  1  0  0  0  0
 13 30  1  0  0  0  0
 13 48  1  0  0  0  0
 13 14  1  0  0  0  0
 14 15  2  0  0  0  0
 14 16  1  0  0  0  0
 16 49  1  0  0  0  0
 16 17  1  0  0  0  0
 17 50  1  0  0  0  0
 17 51  1  0  0  0  0
 17 18  1  0  0  0  0
 18 19  1  0  0  0  0
 18 29  2  0  0  0  0
 19 52  1  0  0  0  0
 19 20  2  0  0  0  0
 20 53  1  0  0  0  0
 20 21  1  0  0  0  0
 21 28  2  0  0  0  0
 21 22  1  0  0  0  0
 22 23  2  0  0  0  0
 22 27  1  0  0  0  0
 23 24  1  0  0  0  0
 23 25  1  0  0  0  0
 24 54  1  0  0  0  0
 24 55  1  0  0  0  0
 24 56  1  0  0  0  0
 25 26  2  0  0  0  0
 26 57  1  0  0  0  0
 26 27  1  0  0  0  0
 28 58  1  0  0  0  0
 28 29  1  0  0  0  0
 29 59  1  0  0  0  0
 31 30  1  0  0  0  0
 30 60  1  0  0  0  0
 30 61  1  0  0  0  0
 31 33  1  0  0  0  0
 31 62  1  0  0  0  0
 31 32  1  0  0  0  0
 32 63  1  0  0  0  0
 33 64  1  0  0  0  0
 33 65  1  0  0  0  0
M  ZZC   1 c1
M  ZZC   2 c2
M  ZZC   3 o1
M  ZZC   4 n1
M  ZZC   5 c3
M  ZZC   6 c4
M  ZZC   7 c5
M  ZZC   8 c6
M  ZZC   9 c7
M  ZZC  10 c8
M  ZZC  11 o2
M  ZZC  12 n2
M  ZZC  13 c9
M  ZZC  14 c10
M  ZZC  15 o3
M  ZZC  16 n3
M  ZZC  17 c11
M  ZZC  18 c12
M  ZZC  19 c13
M  ZZC  20 c14
M  ZZC  21 c15
M  ZZC  22 c16
M  ZZC  23 c17
M  ZZC  24 c18
M  ZZC  25 n4
M  ZZC  26 c19
M  ZZC  27 s1
M  ZZC  28 c20
M  ZZC  29 c21
M  ZZC  30 c22
M  ZZC  31 c23
M  ZZC  32 o4
M  ZZC  33 c24
M  ZZC  34 h11
M  ZZC  35 h12
M  ZZC  36 h13
M  ZZC  37 h01
M  ZZC  38 h31
M  ZZC  39 h51
M  ZZC  40 h52
M  ZZC  41 h53
M  ZZC  42 h61
M  ZZC  43 h62
M  ZZC  44 h63
M  ZZC  45 h71
M  ZZC  46 h72
M  ZZC  47 h73
M  ZZC  48 h91
M  ZZC  49 h02
M  ZZC  50 h111
M  ZZC  51 h112
M  ZZC  52 h131
M  ZZC  53 h141
M  ZZC  54 h181
M  ZZC  55 h182
M  ZZC  56 h183
M  ZZC  57 h191
M  ZZC  58 h201
M  ZZC  59 h211
M  ZZC  60 h221
M  ZZC  61 h222
M  ZZC  62 h231
M  ZZC  63 h41
M  ZZC  64 h241
M  ZZC  65 h242
M  ZZM   1 1
M  ZZI   1 111
M  ZZM   2 3
M  ZZI   2 121
M  ZZM   3 7
M  ZZI   3 81
M  ZZM   4 10
M  ZZI   4 211
M  ZZM   5 1
M  ZZI   5 113
M  ZZM   6 1
M  ZZI   6 110
M  ZZM   7 1
M  ZZI   7 111
M  ZZM   8 1
M  ZZI   8 111
M  ZZM   9 1
M  ZZI   9 111
M  ZZM  10 3
M  ZZI  10 121
M  ZZM  11 7
M  ZZI  11 81
M  ZZM  12 10
M  ZZI  12 192
M  ZZM  13 1
M  ZZI  13 113
M  ZZM  14 3
M  ZZI  14 121
M  ZZM  15 7
M  ZZI  15 81
M  ZZM  16 10
M  ZZI  16 211
M  ZZM  17 1
M  ZZI  17 112
M  ZZM  18 37
M  ZZI  18 124
M  ZZM  19 37
M  ZZI  19 125
M  ZZM  20 37
M  ZZI  20 125
M  ZZM  21 37
M  ZZI  21 124
M  ZZM  22 63
M  ZZI  22 104
M  ZZM  23 64
M  ZZI  23 105
M  ZZM  24 1
M  ZZI  24 111
M  ZZM  25 66
M  ZZI  25 222
M  ZZM  26 63
M  ZZI  26 104
M  ZZM  27 44
M  ZZI  27 248
M  ZZM  28 37
M  ZZI  28 125
M  ZZM  29 37
M  ZZI  29 125
M  ZZM  30 1
M  ZZI  30 112
M  ZZM  31 1
M  ZZI  31 113
M  ZZM  32 6
M  ZZI  32 60
M  ZZM  33 1
M  ZZI  33 112
M  ZZM  34 5
M  ZZI  34 1
M  ZZM  35 5
M  ZZI  35 1
M  ZZM  36 5
M  ZZI  36 1
M  ZZM  37 28
M  ZZI  37 11
M  ZZM  38 5
M  ZZI  38 1
M  ZZM  39 5
M  ZZI  39 1
M  ZZM  40 5
M  ZZI  40 1
M  ZZM  41 5
M  ZZI  41 1
M  ZZM  42 5
M  ZZI  42 1
M  ZZM  43 5
M  ZZI  43 1
M  ZZM  44 5
M  ZZI  44 1
M  ZZM  45 5
M  ZZI  45 1
M  ZZM  46 5
M  ZZI  46 1
M  ZZM  47 5
M  ZZI  47 1
M  ZZM  48 5
M  ZZI  48 1
M  ZZM  49 28
M  ZZI  49 11
M  ZZM  50 5
M  ZZI  50 1
M  ZZM  51 5
M  ZZI  51 1
M  ZZM  52 5
M  ZZI  52 1
M  ZZM  53 5
M  ZZI  53 1
M  ZZM  54 5
M  ZZI  54 1
M  ZZM  55 5
M  ZZI  55 1
M  ZZM  56 5
M  ZZI  56 1
M  ZZM  57 5
M  ZZI  57 1
M  ZZM  58 5
M  ZZI  58 1
M  ZZM  59 5
M  ZZI  59 1
M  ZZM  60 5
M  ZZI  60 1
M  ZZM  61 5
M  ZZI  61 1
M  ZZM  62 5
M  ZZI  62 1
M  ZZM  63 21
M  ZZI  63 20
M  ZZM  64 5
M  ZZI  64 1
M  ZZM  65 5
M  ZZI  65 1
M  END
> <IX>
1

> <NAME>
VHL_6NY4_11.pdb

> <Score>
-25.294387

> <Natom>
65

> <Nflex>
8

> <Hbond>
-7.976172

> <Hphob>
-6.449296

> <VwInt>
-29.573947

> <Dsolv>
20.391873

> <SolEl>
8.691958

> <Eintl>
4.916179

> <RecConf>
ND

> <projPath>
VHL_maps/

> <NAME_>
VHL_6NY4_11.pdb

$$$$
