VHL_3MXF_4.pdb
  MOLSOFT 04032206413D

 85 88  0  0  1  0  0  0  0  0999 V2000
   14.0939    0.6619    2.3217 C   0  0  0  0  0  0  0  0  0  0  0  0
   13.8310   -0.2308    1.1413 C   0  0  0  0  0  0  0  0  0  0  0  0
   12.7042   -0.4837    0.7466 O   0  0  0  0  0  0  0  0  0  0  0  0
   14.9824   -0.7063    0.5491 N   0  0  0  0  0  0  0  0  0  0  0  0
   14.9208   -1.6328   -0.5860 C   0  0  1  0  0  0  0  0  0  0  0  0
   14.3397   -0.9022   -1.7970 C   0  0  0  0  0  0  0  0  0  0  0  0
   13.6716   -1.4807   -2.6418 O   0  0  0  0  0  0  0  0  0  0  0  0
   14.7611    0.4086   -1.9194 N   0  0  0  0  0  0  0  0  0  0  0  0
   14.3978    1.2429   -3.0615 C   0  0  1  0  0  0  0  0  0  0  0  0
   14.2790    2.7541   -2.7029 C   0  0  0  0  0  0  0  0  0  0  0  0
   13.0698    2.9454   -1.7746 C   0  0  0  0  0  0  0  0  0  0  0  0
   14.0436    3.5883   -3.9718 C   0  0  0  0  0  0  0  0  0  0  0  0
   15.5216    3.3169   -1.9899 C   0  0  0  0  0  0  0  0  0  0  0  0
   15.4377    0.9400   -4.1550 C   0  0  0  0  0  0  0  0  0  0  0  0
   16.6394    1.0699   -3.9533 O   0  0  0  0  0  0  0  0  0  0  0  0
   14.9492    0.5012   -5.3869 N   0  0  0  0  0  0  0  0  0  0  0  0
   15.8345    0.1264   -6.4863 C   0  0  2  0  0  0  0  0  0  0  0  0
   16.2586    1.3856   -7.2568 C   0  0  0  0  0  0  0  0  0  0  0  0
   15.8851    1.6268   -8.3980 O   0  0  0  0  0  0  0  0  0  0  0  0
   17.1137    2.1979   -6.5329 N   0  0  0  0  0  0  0  0  0  0  0  0
   17.6278    3.4588   -7.0242 C   0  0  0  0  0  0  0  0  0  0  0  0
   19.1309    3.4920   -7.1554 C   0  0  0  0  0  0  0  0  0  0  0  0
   19.7841    4.7193   -7.2169 C   0  0  0  0  0  0  0  0  0  0  0  0
   21.1599    4.7928   -7.3589 C   0  0  0  0  0  0  0  0  0  0  0  0
   21.9244    3.6380   -7.4621 C   0  0  0  0  0  0  0  0  0  0  0  0
   23.3728    3.7124   -7.5950 C   0  0  0  0  0  0  0  0  0  0  0  0
   24.3326    4.2116   -6.7242 C   0  0  0  0  0  0  0  0  0  0  0  0
   24.1004    4.8259   -5.3969 C   0  0  0  0  0  0  0  0  0  0  0  0
   25.6361    4.0975   -7.1631 N   0  0  0  0  0  0  0  0  0  0  0  0
   25.6568    3.5416   -8.3532 C   0  0  0  0  0  0  0  0  0  0  0  0
   24.1405    3.1295   -9.0197 S   0  0  0  0  0  0  0  0  0  0  0  0
   21.2725    2.4113   -7.4188 C   0  0  0  0  0  0  0  0  0  0  0  0
   19.8998    2.3370   -7.2700 C   0  0  0  0  0  0  0  0  0  0  0  0
   14.9975   -0.8385   -7.3124 C   0  0  0  0  0  0  0  0  0  0  0  0
   13.5746   -0.3380   -7.1225 C   0  0  1  0  0  0  0  0  0  0  0  0
   12.6483   -1.4146   -7.2496 O   0  0  0  0  0  0  0  0  0  0  0  0
   13.5645    0.2025   -5.7061 C   0  0  0  0  0  0  0  0  0  0  0  0
   16.3250   -2.1647   -0.9179 C   0  0  0  0  0  0  0  0  0  0  0  0
   16.3703   -3.0911   -2.1072 C   0  0  0  0  0  0  0  0  0  0  0  0
   15.7062   -4.3113   -2.0811 C   0  0  0  0  0  0  0  0  0  0  0  0
   15.7579   -5.1583   -3.1699 C   0  0  0  0  0  0  0  0  0  0  0  0
   16.4756   -4.8108   -4.2980 C   0  0  0  0  0  0  0  0  0  0  0  0
   17.1296   -3.5946   -4.3431 C   0  0  0  0  0  0  0  0  0  0  0  0
   17.0781   -2.7404   -3.2546 C   0  0  0  0  0  0  0  0  0  0  0  0
   14.8095    1.4434    2.0482 H   0  0  0  0  0  0  0  0  0  0  0  0
   14.4942    0.0689    3.1494 H   0  0  0  0  0  0  0  0  0  0  0  0
   13.1612    1.1382    2.6386 H   0  0  0  0  0  0  0  0  0  0  0  0
   15.8779   -0.4987    0.9796 H   0  0  0  0  0  0  0  0  0  0  0  0
   14.2335   -2.4435   -0.3189 H   0  0  0  0  0  0  0  0  0  0  0  0
   15.3958    0.7702   -1.2170 H   0  0  0  0  0  0  0  0  0  0  0  0
   13.4149    0.8979   -3.3891 H   0  0  0  0  0  0  0  0  0  0  0  0
   12.9186    4.0018   -1.5323 H   0  0  0  0  0  0  0  0  0  0  0  0
   13.1924    2.4077   -0.8291 H   0  0  0  0  0  0  0  0  0  0  0  0
   12.1474    2.5840   -2.2394 H   0  0  0  0  0  0  0  0  0  0  0  0
   14.9052    3.5621   -4.6455 H   0  0  0  0  0  0  0  0  0  0  0  0
   13.8593    4.6402   -3.7304 H   0  0  0  0  0  0  0  0  0  0  0  0
   13.1772    3.2309   -4.5323 H   0  0  0  0  0  0  0  0  0  0  0  0
   15.7060    2.8295   -1.0284 H   0  0  0  0  0  0  0  0  0  0  0  0
   15.4015    4.3847   -1.7787 H   0  0  0  0  0  0  0  0  0  0  0  0
   16.4254    3.2144   -2.5965 H   0  0  0  0  0  0  0  0  0  0  0  0
   16.7381   -0.3628   -6.1028 H   0  0  0  0  0  0  0  0  0  0  0  0
   17.3557    1.9248   -5.5818 H   0  0  0  0  0  0  0  0  0  0  0  0
   17.1655    3.7002   -7.9852 H   0  0  0  0  0  0  0  0  0  0  0  0
   17.3093    4.2144   -6.2988 H   0  0  0  0  0  0  0  0  0  0  0  0
   19.2144    5.6418   -7.1525 H   0  0  0  0  0  0  0  0  0  0  0  0
   21.6338    5.7692   -7.3986 H   0  0  0  0  0  0  0  0  0  0  0  0
   23.6838    5.8311   -5.5059 H   0  0  0  0  0  0  0  0  0  0  0  0
   25.0348    4.9080   -4.8339 H   0  0  0  0  0  0  0  0  0  0  0  0
   23.4076    4.2277   -4.7996 H   0  0  0  0  0  0  0  0  0  0  0  0
   26.5783    3.3539   -8.8852 H   0  0  0  0  0  0  0  0  0  0  0  0
   21.8334    1.4867   -7.5025 H   0  0  0  0  0  0  0  0  0  0  0  0
   19.4374    1.3548   -7.2499 H   0  0  0  0  0  0  0  0  0  0  0  0
   15.2842   -0.8820   -8.3677 H   0  0  0  0  0  0  0  0  0  0  0  0
   15.0928   -1.8576   -6.9192 H   0  0  0  0  0  0  0  0  0  0  0  0
   13.3342    0.4451   -7.8498 H   0  0  0  0  0  0  0  0  0  0  0  0
   11.7640   -1.0317   -7.4007 H   0  0  0  0  0  0  0  0  0  0  0  0
   13.1722   -0.5340   -4.9985 H   0  0  0  0  0  0  0  0  0  0  0  0
   12.9572    1.1087   -5.6289 H   0  0  0  0  0  0  0  0  0  0  0  0
   17.0091   -1.3254   -1.0898 H   0  0  0  0  0  0  0  0  0  0  0  0
   16.7354   -2.6942   -0.0505 H   0  0  0  0  0  0  0  0  0  0  0  0
   15.1376   -4.6114   -1.2072 H   0  0  0  0  0  0  0  0  0  0  0  0
   15.2303   -6.1009   -3.1345 H   0  0  0  0  0  0  0  0  0  0  0  0
   16.5232   -5.4881   -5.1449 H   0  0  0  0  0  0  0  0  0  0  0  0
   17.6885   -3.3140   -5.2309 H   0  0  0  0  0  0  0  0  0  0  0  0
   17.6007   -1.7902   -3.3100 H   0  0  0  0  0  0  0  0  0  0  0  0
  1 45  1  0  0  0  0
  1 46  1  0  0  0  0
  1 47  1  0  0  0  0
  1  2  1  0  0  0  0
  2  3  2  0  0  0  0
  2  4  1  0  0  0  0
  4 48  1  0  0  0  0
  5  4  1  0  0  0  0
  5 49  1  0  0  0  0
  5 38  1  0  0  0  0
  5  6  1  0  0  0  0
  6  7  2  0  0  0  0
  6  8  1  0  0  0  0
  8 50  1  0  0  0  0
  9  8  1  0  0  0  0
  9 51  1  0  0  0  0
  9 10  1  0  0  0  0
  9 14  1  0  0  0  0
 10 11  1  0  0  0  0
 10 12  1  0  0  0  0
 10 13  1  0  0  0  0
 11 52  1  0  0  0  0
 11 53  1  0  0  0  0
 11 54  1  0  0  0  0
 12 55  1  0  0  0  0
 12 56  1  0  0  0  0
 12 57  1  0  0  0  0
 13 58  1  0  0  0  0
 13 59  1  0  0  0  0
 13 60  1  0  0  0  0
 14 15  2  0  0  0  0
 14 16  1  0  0  0  0
 17 16  1  0  0  0  0
 16 37  1  0  0  0  0
 17 61  1  0  0  0  0
 17 34  1  0  0  0  0
 17 18  1  0  0  0  0
 18 19  2  0  0  0  0
 18 20  1  0  0  0  0
 20 62  1  0  0  0  0
 20 21  1  0  0  0  0
 21 63  1  0  0  0  0
 21 64  1  0  0  0  0
 21 22  1  0  0  0  0
 22 23  1  0  0  0  0
 22 33  2  0  0  0  0
 23 65  1  0  0  0  0
 23 24  2  0  0  0  0
 24 66  1  0  0  0  0
 24 25  1  0  0  0  0
 25 32  2  0  0  0  0
 25 26  1  0  0  0  0
 26 27  2  0  0  0  0
 26 31  1  0  0  0  0
 27 28  1  0  0  0  0
 27 29  1  0  0  0  0
 28 67  1  0  0  0  0
 28 68  1  0  0  0  0
 28 69  1  0  0  0  0
 29 30  2  0  0  0  0
 30 70  1  0  0  0  0
 30 31  1  0  0  0  0
 32 71  1  0  0  0  0
 32 33  1  0  0  0  0
 33 72  1  0  0  0  0
 34 73  1  0  0  0  0
 34 74  1  0  0  0  0
 35 34  1  0  0  0  0
 35 75  1  0  0  0  0
 35 37  1  0  0  0  0
 35 36  1  0  0  0  0
 36 76  1  0  0  0  0
 37 77  1  0  0  0  0
 37 78  1  0  0  0  0
 38 79  1  0  0  0  0
 38 80  1  0  0  0  0
 38 39  1  0  0  0  0
 39 40  1  0  0  0  0
 39 44  2  0  0  0  0
 40 81  1  0  0  0  0
 40 41  2  0  0  0  0
 41 82  1  0  0  0  0
 41 42  1  0  0  0  0
 42 83  1  0  0  0  0
 42 43  2  0  0  0  0
 43 84  1  0  0  0  0
 43 44  1  0  0  0  0
 44 85  1  0  0  0  0
M  ZZC   1 c1
M  ZZC   2 c2
M  ZZC   3 o1
M  ZZC   4 n1
M  ZZC   5 c3
M  ZZC   6 c4
M  ZZC   7 o2
M  ZZC   8 n2
M  ZZC   9 c5
M  ZZC  10 c6
M  ZZC  11 c7
M  ZZC  12 c8
M  ZZC  13 c9
M  ZZC  14 c10
M  ZZC  15 o3
M  ZZC  16 n3
M  ZZC  17 c11
M  ZZC  18 c12
M  ZZC  19 o4
M  ZZC  20 n4
M  ZZC  21 c13
M  ZZC  22 c14
M  ZZC  23 c15
M  ZZC  24 c16
M  ZZC  25 c17
M  ZZC  26 c18
M  ZZC  27 c19
M  ZZC  28 c20
M  ZZC  29 n5
M  ZZC  30 c21
M  ZZC  31 s1
M  ZZC  32 c22
M  ZZC  33 c23
M  ZZC  34 c24
M  ZZC  35 c25
M  ZZC  36 o5
M  ZZC  37 c26
M  ZZC  38 c27
M  ZZC  39 c28
M  ZZC  40 c29
M  ZZC  41 c30
M  ZZC  42 c31
M  ZZC  43 c32
M  ZZC  44 c33
M  ZZC  45 h11
M  ZZC  46 h12
M  ZZC  47 h13
M  ZZC  48 h01
M  ZZC  49 h31
M  ZZC  50 h21
M  ZZC  51 h51
M  ZZC  52 h71
M  ZZC  53 h72
M  ZZC  54 h73
M  ZZC  55 h81
M  ZZC  56 h82
M  ZZC  57 h83
M  ZZC  58 h91
M  ZZC  59 h92
M  ZZC  60 h93
M  ZZC  61 h111
M  ZZC  62 h41
M  ZZC  63 h131
M  ZZC  64 h132
M  ZZC  65 h151
M  ZZC  66 h161
M  ZZC  67 h201
M  ZZC  68 h202
M  ZZC  69 h203
M  ZZC  70 h211
M  ZZC  71 h221
M  ZZC  72 h231
M  ZZC  73 h241
M  ZZC  74 h242
M  ZZC  75 h251
M  ZZC  76 h02
M  ZZC  77 h261
M  ZZC  78 h262
M  ZZC  79 h271
M  ZZC  80 h272
M  ZZC  81 h291
M  ZZC  82 h301
M  ZZC  83 h311
M  ZZC  84 h321
M  ZZC  85 h331
M  ZZM   1 1
M  ZZI   1 111
M  ZZM   2 3
M  ZZI   2 121
M  ZZM   3 7
M  ZZI   3 81
M  ZZM   4 10
M  ZZI   4 211
M  ZZM   5 1
M  ZZI   5 113
M  ZZM   6 3
M  ZZI   6 121
M  ZZM   7 7
M  ZZI   7 81
M  ZZM   8 10
M  ZZI   8 211
M  ZZM   9 1
M  ZZI   9 113
M  ZZM  10 1
M  ZZI  10 110
M  ZZM  11 1
M  ZZI  11 111
M  ZZM  12 1
M  ZZI  12 111
M  ZZM  13 1
M  ZZI  13 111
M  ZZM  14 3
M  ZZI  14 121
M  ZZM  15 7
M  ZZI  15 81
M  ZZM  16 10
M  ZZI  16 192
M  ZZM  17 1
M  ZZI  17 113
M  ZZM  18 3
M  ZZI  18 121
M  ZZM  19 7
M  ZZI  19 81
M  ZZM  20 10
M  ZZI  20 211
M  ZZM  21 1
M  ZZI  21 112
M  ZZM  22 37
M  ZZI  22 124
M  ZZM  23 37
M  ZZI  23 125
M  ZZM  24 37
M  ZZI  24 125
M  ZZM  25 37
M  ZZI  25 124
M  ZZM  26 63
M  ZZI  26 104
M  ZZM  27 64
M  ZZI  27 105
M  ZZM  28 1
M  ZZI  28 111
M  ZZM  29 66
M  ZZI  29 222
M  ZZM  30 63
M  ZZI  30 104
M  ZZM  31 44
M  ZZI  31 248
M  ZZM  32 37
M  ZZI  32 125
M  ZZM  33 37
M  ZZI  33 125
M  ZZM  34 1
M  ZZI  34 112
M  ZZM  35 1
M  ZZI  35 113
M  ZZM  36 6
M  ZZI  36 60
M  ZZM  37 1
M  ZZI  37 112
M  ZZM  38 1
M  ZZI  38 112
M  ZZM  39 37
M  ZZI  39 124
M  ZZM  40 37
M  ZZI  40 125
M  ZZM  41 37
M  ZZI  41 125
M  ZZM  42 37
M  ZZI  42 125
M  ZZM  43 37
M  ZZI  43 125
M  ZZM  44 37
M  ZZI  44 125
M  ZZM  45 5
M  ZZI  45 1
M  ZZM  46 5
M  ZZI  46 1
M  ZZM  47 5
M  ZZI  47 1
M  ZZM  48 28
M  ZZI  48 11
M  ZZM  49 5
M  ZZI  49 1
M  ZZM  50 28
M  ZZI  50 11
M  ZZM  51 5
M  ZZI  51 1
M  ZZM  52 5
M  ZZI  52 1
M  ZZM  53 5
M  ZZI  53 1
M  ZZM  54 5
M  ZZI  54 1
M  ZZM  55 5
M  ZZI  55 1
M  ZZM  56 5
M  ZZI  56 1
M  ZZM  57 5
M  ZZI  57 1
M  ZZM  58 5
M  ZZI  58 1
M  ZZM  59 5
M  ZZI  59 1
M  ZZM  60 5
M  ZZI  60 1
M  ZZM  61 5
M  ZZI  61 1
M  ZZM  62 28
M  ZZI  62 11
M  ZZM  63 5
M  ZZI  63 1
M  ZZM  64 5
M  ZZI  64 1
M  ZZM  65 5
M  ZZI  65 1
M  ZZM  66 5
M  ZZI  66 1
M  ZZM  67 5
M  ZZI  67 1
M  ZZM  68 5
M  ZZI  68 1
M  ZZM  69 5
M  ZZI  69 1
M  ZZM  70 5
M  ZZI  70 1
M  ZZM  71 5
M  ZZI  71 1
M  ZZM  72 5
M  ZZI  72 1
M  ZZM  73 5
M  ZZI  73 1
M  ZZM  74 5
M  ZZI  74 1
M  ZZM  75 5
M  ZZI  75 1
M  ZZM  76 21
M  ZZI  76 20
M  ZZM  77 5
M  ZZI  77 1
M  ZZM  78 5
M  ZZI  78 1
M  ZZM  79 5
M  ZZI  79 1
M  ZZM  80 5
M  ZZI  80 1
M  ZZM  81 5
M  ZZI  81 1
M  ZZM  82 5
M  ZZI  82 1
M  ZZM  83 5
M  ZZI  83 1
M  ZZM  84 5
M  ZZI  84 1
M  ZZM  85 5
M  ZZI  85 1
M  END
> <IX>
1

> <NAME>
VHL_3MXF_4.pdb

> <Score>
-20.349797

> <Natom>
85

> <Nflex>
12

> <Hbond>
-4.497483

> <Hphob>
-6.731909

> <VwInt>
-38.107997

> <Dsolv>
17.353153

> <SolEl>
12.298648

> <Eintl>
8.858733

> <RecConf>
ND

> <projPath>
VHL_maps/

> <NAME_>
VHL_3MXF_4.pdb

$$$$
