VHL_5EHR_23.pdb
  MOLSOFT 04032206393D

 68 70  0  0  1  0  0  0  0  0999 V2000
   18.6392    2.4670   -4.4420 C   0  0  0  0  0  0  0  0  0  0  0  0
   18.2100    1.1227   -4.9625 C   0  0  0  0  0  0  0  0  0  0  0  0
   19.0146    0.2832   -5.3387 O   0  0  0  0  0  0  0  0  0  0  0  0
   16.8389    0.9698   -4.9630 N   0  0  0  0  0  0  0  0  0  0  0  0
   16.1724   -0.2382   -5.4510 C   0  0  2  0  0  0  0  0  0  0  0  0
   15.2601    0.0474   -6.6782 C   0  0  0  0  0  0  0  0  0  0  0  0
   14.2598    1.1969   -6.4482 C   0  0  0  0  0  0  0  0  0  0  0  0
   14.4651   -1.2118   -7.0332 C   0  0  0  0  0  0  0  0  0  0  0  0
   16.1343    0.4129   -7.8870 C   0  0  0  0  0  0  0  0  0  0  0  0
   15.4020   -0.8289   -4.2563 C   0  0  0  0  0  0  0  0  0  0  0  0
   14.5571   -0.1744   -3.6582 O   0  0  0  0  0  0  0  0  0  0  0  0
   15.7213   -2.1304   -3.8667 N   0  0  0  0  0  0  0  0  0  0  0  0
   15.0080   -2.7901   -2.7789 C   0  0  2  0  0  0  0  0  0  0  0  0
   15.4732   -2.2009   -1.4417 C   0  0  0  0  0  0  0  0  0  0  0  0
   16.6553   -2.0364   -1.1696 O   0  0  0  0  0  0  0  0  0  0  0  0
   14.4375   -1.8651   -0.5873 N   0  0  0  0  0  0  0  0  0  0  0  0
   14.6580   -1.1773    0.6778 C   0  0  1  0  0  0  0  0  0  0  0  0
   13.6601   -0.0252    0.7935 C   0  0  0  0  0  0  0  0  0  0  0  0
   14.6572   -2.1519    1.8452 C   0  0  0  0  0  0  0  0  0  0  0  0
   15.7150   -3.0465    1.9862 C   0  0  0  0  0  0  0  0  0  0  0  0
   15.7631   -3.9570    3.0259 C   0  0  0  0  0  0  0  0  0  0  0  0
   14.7505   -4.0141    3.9786 C   0  0  0  0  0  0  0  0  0  0  0  0
   14.7753   -5.0089    5.0511 C   0  0  0  0  0  0  0  0  0  0  0  0
   13.7688   -5.8152    5.5762 C   0  0  0  0  0  0  0  0  0  0  0  0
   12.3488   -5.8830    5.1568 C   0  0  0  0  0  0  0  0  0  0  0  0
   14.1613   -6.6538    6.6004 N   0  0  0  0  0  0  0  0  0  0  0  0
   15.4405   -6.4889    6.8455 C   0  0  0  0  0  0  0  0  0  0  0  0
   16.2473   -5.3328    5.8871 S   0  0  0  0  0  0  0  0  0  0  0  0
   13.7029   -3.1071    3.8578 C   0  0  0  0  0  0  0  0  0  0  0  0
   13.6517   -2.1998    2.8114 C   0  0  0  0  0  0  0  0  0  0  0  0
   15.3995   -4.2565   -2.9033 C   0  0  0  0  0  0  0  0  0  0  0  0
   16.7949   -4.1981   -3.4986 C   0  0  1  0  0  0  0  0  0  0  0  0
   17.1129   -5.4044   -4.1888 O   0  0  0  0  0  0  0  0  0  0  0  0
   16.7350   -3.0017   -4.4352 C   0  0  0  0  0  0  0  0  0  0  0  0
   18.1222    3.2625   -4.9874 H   0  0  0  0  0  0  0  0  0  0  0  0
   19.7172    2.5919   -4.5793 H   0  0  0  0  0  0  0  0  0  0  0  0
   18.4046    2.5403   -3.3758 H   0  0  0  0  0  0  0  0  0  0  0  0
   16.2648    1.6988   -4.5508 H   0  0  0  0  0  0  0  0  0  0  0  0
   16.9499   -0.9376   -5.7648 H   0  0  0  0  0  0  0  0  0  0  0  0
   13.5541    0.9767   -5.6428 H   0  0  0  0  0  0  0  0  0  0  0  0
   13.6606    1.3822   -7.3459 H   0  0  0  0  0  0  0  0  0  0  0  0
   14.7610    2.1388   -6.2070 H   0  0  0  0  0  0  0  0  0  0  0  0
   13.8154   -1.0521   -7.8999 H   0  0  0  0  0  0  0  0  0  0  0  0
   13.8366   -1.5130   -6.1952 H   0  0  0  0  0  0  0  0  0  0  0  0
   15.1194   -2.0613   -7.2507 H   0  0  0  0  0  0  0  0  0  0  0  0
   16.7183    1.3167   -7.6974 H   0  0  0  0  0  0  0  0  0  0  0  0
   15.5286    0.6036   -8.7782 H   0  0  0  0  0  0  0  0  0  0  0  0
   16.8445   -0.3825   -8.1318 H   0  0  0  0  0  0  0  0  0  0  0  0
   13.9283   -2.6450   -2.9017 H   0  0  0  0  0  0  0  0  0  0  0  0
   13.4829   -2.0921   -0.8414 H   0  0  0  0  0  0  0  0  0  0  0  0
   15.6530   -0.7193    0.6461 H   0  0  0  0  0  0  0  0  0  0  0  0
   13.8019    0.5401    1.7201 H   0  0  0  0  0  0  0  0  0  0  0  0
   12.6250   -0.3802    0.7637 H   0  0  0  0  0  0  0  0  0  0  0  0
   13.7763    0.6720   -0.0425 H   0  0  0  0  0  0  0  0  0  0  0  0
   16.5293   -3.0436    1.2677 H   0  0  0  0  0  0  0  0  0  0  0  0
   16.6032   -4.6442    3.0666 H   0  0  0  0  0  0  0  0  0  0  0  0
   11.7615   -5.1212    5.6762 H   0  0  0  0  0  0  0  0  0  0  0  0
   11.9178   -6.8602    5.3937 H   0  0  0  0  0  0  0  0  0  0  0  0
   12.2370   -5.7299    4.0810 H   0  0  0  0  0  0  0  0  0  0  0  0
   15.9599   -7.0493    7.6098 H   0  0  0  0  0  0  0  0  0  0  0  0
   12.9029   -3.0938    4.5912 H   0  0  0  0  0  0  0  0  0  0  0  0
   12.8030   -1.5249    2.7685 H   0  0  0  0  0  0  0  0  0  0  0  0
   15.3790   -4.7995   -1.9524 H   0  0  0  0  0  0  0  0  0  0  0  0
   14.7228   -4.7830   -3.5843 H   0  0  0  0  0  0  0  0  0  0  0  0
   17.5323   -4.0334   -2.7073 H   0  0  0  0  0  0  0  0  0  0  0  0
   18.0649   -5.3674   -4.3971 H   0  0  0  0  0  0  0  0  0  0  0  0
   16.4402   -3.2824   -5.4522 H   0  0  0  0  0  0  0  0  0  0  0  0
   17.7001   -2.4885   -4.4892 H   0  0  0  0  0  0  0  0  0  0  0  0
  1 35  1  0  0  0  0
  1 36  1  0  0  0  0
  1 37  1  0  0  0  0
  1  2  1  0  0  0  0
  2  3  2  0  0  0  0
  2  4  1  0  0  0  0
  4 38  1  0  0  0  0
  5  4  1  0  0  0  0
  5 39  1  0  0  0  0
  5  6  1  0  0  0  0
  5 10  1  0  0  0  0
  6  7  1  0  0  0  0
  6  8  1  0  0  0  0
  6  9  1  0  0  0  0
  7 40  1  0  0  0  0
  7 41  1  0  0  0  0
  7 42  1  0  0  0  0
  8 43  1  0  0  0  0
  8 44  1  0  0  0  0
  8 45  1  0  0  0  0
  9 46  1  0  0  0  0
  9 47  1  0  0  0  0
  9 48  1  0  0  0  0
 10 11  2  0  0  0  0
 10 12  1  0  0  0  0
 12 34  1  0  0  0  0
 13 12  1  0  0  0  0
 13 31  1  0  0  0  0
 13 49  1  0  0  0  0
 13 14  1  0  0  0  0
 14 15  2  0  0  0  0
 14 16  1  0  0  0  0
 16 50  1  0  0  0  0
 17 16  1  0  0  0  0
 17 51  1  0  0  0  0
 17 18  1  0  0  0  0
 17 19  1  0  0  0  0
 18 52  1  0  0  0  0
 18 53  1  0  0  0  0
 18 54  1  0  0  0  0
 19 20  1  0  0  0  0
 19 30  2  0  0  0  0
 20 55  1  0  0  0  0
 20 21  2  0  0  0  0
 21 56  1  0  0  0  0
 21 22  1  0  0  0  0
 22 29  2  0  0  0  0
 22 23  1  0  0  0  0
 23 24  2  0  0  0  0
 23 28  1  0  0  0  0
 24 25  1  0  0  0  0
 24 26  1  0  0  0  0
 25 57  1  0  0  0  0
 25 58  1  0  0  0  0
 25 59  1  0  0  0  0
 26 27  2  0  0  0  0
 27 60  1  0  0  0  0
 27 28  1  0  0  0  0
 29 61  1  0  0  0  0
 29 30  1  0  0  0  0
 30 62  1  0  0  0  0
 32 31  1  0  0  0  0
 31 63  1  0  0  0  0
 31 64  1  0  0  0  0
 32 34  1  0  0  0  0
 32 65  1  0  0  0  0
 32 33  1  0  0  0  0
 33 66  1  0  0  0  0
 34 67  1  0  0  0  0
 34 68  1  0  0  0  0
M  ZZC   1 c1
M  ZZC   2 c2
M  ZZC   3 o1
M  ZZC   4 n1
M  ZZC   5 c3
M  ZZC   6 c4
M  ZZC   7 c5
M  ZZC   8 c6
M  ZZC   9 c7
M  ZZC  10 c8
M  ZZC  11 o2
M  ZZC  12 n2
M  ZZC  13 c9
M  ZZC  14 c10
M  ZZC  15 o3
M  ZZC  16 n3
M  ZZC  17 c11
M  ZZC  18 c12
M  ZZC  19 c13
M  ZZC  20 c14
M  ZZC  21 c15
M  ZZC  22 c16
M  ZZC  23 c17
M  ZZC  24 c18
M  ZZC  25 c19
M  ZZC  26 n4
M  ZZC  27 c20
M  ZZC  28 s1
M  ZZC  29 c21
M  ZZC  30 c22
M  ZZC  31 c23
M  ZZC  32 c24
M  ZZC  33 o4
M  ZZC  34 c25
M  ZZC  35 h11
M  ZZC  36 h12
M  ZZC  37 h13
M  ZZC  38 h01
M  ZZC  39 h31
M  ZZC  40 h51
M  ZZC  41 h52
M  ZZC  42 h53
M  ZZC  43 h61
M  ZZC  44 h62
M  ZZC  45 h63
M  ZZC  46 h71
M  ZZC  47 h72
M  ZZC  48 h73
M  ZZC  49 h91
M  ZZC  50 h02
M  ZZC  51 h111
M  ZZC  52 h121
M  ZZC  53 h122
M  ZZC  54 h123
M  ZZC  55 h141
M  ZZC  56 h151
M  ZZC  57 h191
M  ZZC  58 h192
M  ZZC  59 h193
M  ZZC  60 h201
M  ZZC  61 h211
M  ZZC  62 h221
M  ZZC  63 h231
M  ZZC  64 h232
M  ZZC  65 h241
M  ZZC  66 h41
M  ZZC  67 h251
M  ZZC  68 h252
M  ZZM   1 1
M  ZZI   1 111
M  ZZM   2 3
M  ZZI   2 121
M  ZZM   3 7
M  ZZI   3 81
M  ZZM   4 10
M  ZZI   4 211
M  ZZM   5 1
M  ZZI   5 113
M  ZZM   6 1
M  ZZI   6 110
M  ZZM   7 1
M  ZZI   7 111
M  ZZM   8 1
M  ZZI   8 111
M  ZZM   9 1
M  ZZI   9 111
M  ZZM  10 3
M  ZZI  10 121
M  ZZM  11 7
M  ZZI  11 81
M  ZZM  12 10
M  ZZI  12 192
M  ZZM  13 1
M  ZZI  13 113
M  ZZM  14 3
M  ZZI  14 121
M  ZZM  15 7
M  ZZI  15 81
M  ZZM  16 10
M  ZZI  16 211
M  ZZM  17 1
M  ZZI  17 113
M  ZZM  18 1
M  ZZI  18 111
M  ZZM  19 37
M  ZZI  19 124
M  ZZM  20 37
M  ZZI  20 125
M  ZZM  21 37
M  ZZI  21 125
M  ZZM  22 37
M  ZZI  22 124
M  ZZM  23 63
M  ZZI  23 104
M  ZZM  24 64
M  ZZI  24 105
M  ZZM  25 1
M  ZZI  25 111
M  ZZM  26 66
M  ZZI  26 222
M  ZZM  27 63
M  ZZI  27 104
M  ZZM  28 44
M  ZZI  28 248
M  ZZM  29 37
M  ZZI  29 125
M  ZZM  30 37
M  ZZI  30 125
M  ZZM  31 1
M  ZZI  31 112
M  ZZM  32 1
M  ZZI  32 113
M  ZZM  33 6
M  ZZI  33 60
M  ZZM  34 1
M  ZZI  34 112
M  ZZM  35 5
M  ZZI  35 1
M  ZZM  36 5
M  ZZI  36 1
M  ZZM  37 5
M  ZZI  37 1
M  ZZM  38 28
M  ZZI  38 11
M  ZZM  39 5
M  ZZI  39 1
M  ZZM  40 5
M  ZZI  40 1
M  ZZM  41 5
M  ZZI  41 1
M  ZZM  42 5
M  ZZI  42 1
M  ZZM  43 5
M  ZZI  43 1
M  ZZM  44 5
M  ZZI  44 1
M  ZZM  45 5
M  ZZI  45 1
M  ZZM  46 5
M  ZZI  46 1
M  ZZM  47 5
M  ZZI  47 1
M  ZZM  48 5
M  ZZI  48 1
M  ZZM  49 5
M  ZZI  49 1
M  ZZM  50 28
M  ZZI  50 11
M  ZZM  51 5
M  ZZI  51 1
M  ZZM  52 5
M  ZZI  52 1
M  ZZM  53 5
M  ZZI  53 1
M  ZZM  54 5
M  ZZI  54 1
M  ZZM  55 5
M  ZZI  55 1
M  ZZM  56 5
M  ZZI  56 1
M  ZZM  57 5
M  ZZI  57 1
M  ZZM  58 5
M  ZZI  58 1
M  ZZM  59 5
M  ZZI  59 1
M  ZZM  60 5
M  ZZI  60 1
M  ZZM  61 5
M  ZZI  61 1
M  ZZM  62 5
M  ZZI  62 1
M  ZZM  63 5
M  ZZI  63 1
M  ZZM  64 5
M  ZZI  64 1
M  ZZM  65 5
M  ZZI  65 1
M  ZZM  66 21
M  ZZI  66 20
M  ZZM  67 5
M  ZZI  67 1
M  ZZM  68 5
M  ZZI  68 1
M  END
> <IX>
1

> <NAME>
VHL_5EHR_23.pdb

> <Score>
-15.409493

> <Natom>
68

> <Nflex>
8

> <Hbond>
-4.120908

> <Hphob>
-6.479775

> <VwInt>
-28.899588

> <Dsolv>
16.219294

> <SolEl>
12.089847

> <Eintl>
5.522788

> <RecConf>
ND

> <projPath>
VHL_maps/

> <NAME_>
VHL_5EHR_23.pdb

$$$$
