VHL_2GQG_9.pdb
  MOLSOFT 04032206383D

 65 67  0  0  1  0  0  0  0  0999 V2000
   18.3678   -6.9324   -5.3341 C   0  0  0  0  0  0  0  0  0  0  0  0
   17.1884   -6.0006   -5.2876 C   0  0  0  0  0  0  0  0  0  0  0  0
   16.0867   -6.3671   -5.6641 O   0  0  0  0  0  0  0  0  0  0  0  0
   17.4820   -4.7558   -4.7636 N   0  0  0  0  0  0  0  0  0  0  0  0
   16.5066   -3.6670   -4.6463 C   0  0  1  0  0  0  0  0  0  0  0  0
   15.8864   -3.5411   -3.2171 C   0  0  0  0  0  0  0  0  0  0  0  0
   14.6623   -2.6116   -3.2478 C   0  0  0  0  0  0  0  0  0  0  0  0
   15.4054   -4.9087   -2.7066 C   0  0  0  0  0  0  0  0  0  0  0  0
   16.8903   -2.9844   -2.1948 C   0  0  0  0  0  0  0  0  0  0  0  0
   17.2011   -2.3751   -5.1188 C   0  0  0  0  0  0  0  0  0  0  0  0
   18.3516   -2.1197   -4.7942 O   0  0  0  0  0  0  0  0  0  0  0  0
   16.4621   -1.4622   -5.8725 N   0  0  0  0  0  0  0  0  0  0  0  0
   17.0241   -0.1642   -6.2259 C   0  0  2  0  0  0  0  0  0  0  0  0
   17.2026    0.8076   -5.0673 C   0  0  0  0  0  0  0  0  0  0  0  0
   16.5454    0.7632   -4.0362 O   0  0  0  0  0  0  0  0  0  0  0  0
   18.1091    1.8043   -5.3756 N   0  0  0  0  0  0  0  0  0  0  0  0
   18.2232    3.0112   -4.5909 C   0  0  0  0  0  0  0  0  0  0  0  0
   17.2824    4.0607   -5.1241 C   0  0  0  0  0  0  0  0  0  0  0  0
   17.5687    4.7365   -6.3075 C   0  0  0  0  0  0  0  0  0  0  0  0
   16.6917    5.6809   -6.8137 C   0  0  0  0  0  0  0  0  0  0  0  0
   15.5072    5.9772   -6.1481 C   0  0  0  0  0  0  0  0  0  0  0  0
   14.6209    7.0162   -6.6512 C   0  0  0  0  0  0  0  0  0  0  0  0
   13.9322    7.1304   -7.8525 C   0  0  0  0  0  0  0  0  0  0  0  0
   13.8879    6.1403   -8.9523 C   0  0  0  0  0  0  0  0  0  0  0  0
   13.2242    8.3056   -8.0077 N   0  0  0  0  0  0  0  0  0  0  0  0
   13.3762    9.0530   -6.9378 C   0  0  0  0  0  0  0  0  0  0  0  0
   14.3331    8.4079   -5.6858 S   0  0  0  0  0  0  0  0  0  0  0  0
   15.2068    5.2831   -4.9802 C   0  0  0  0  0  0  0  0  0  0  0  0
   16.0817    4.3352   -4.4774 C   0  0  0  0  0  0  0  0  0  0  0  0
   16.0353    0.4493   -7.2109 C   0  0  0  0  0  0  0  0  0  0  0  0
   15.3713   -0.7544   -7.8373 C   0  0  1  0  0  0  0  0  0  0  0  0
   16.1708   -1.2340   -8.9274 O   0  0  0  0  0  0  0  0  0  0  0  0
   15.3183   -1.7723   -6.7061 C   0  0  0  0  0  0  0  0  0  0  0  0
   19.3146   -6.3846   -5.3113 H   0  0  0  0  0  0  0  0  0  0  0  0
   18.3304   -7.5128   -6.2600 H   0  0  0  0  0  0  0  0  0  0  0  0
   18.3165   -7.6115   -4.4801 H   0  0  0  0  0  0  0  0  0  0  0  0
   18.4322   -4.5728   -4.4634 H   0  0  0  0  0  0  0  0  0  0  0  0
   15.7150   -3.9049   -5.3435 H   0  0  0  0  0  0  0  0  0  0  0  0
   14.9291   -1.5887   -3.5261 H   0  0  0  0  0  0  0  0  0  0  0  0
   14.1775   -2.5556   -2.2677 H   0  0  0  0  0  0  0  0  0  0  0  0
   13.9098   -2.9655   -3.9598 H   0  0  0  0  0  0  0  0  0  0  0  0
   14.9191   -4.8248   -1.7296 H   0  0  0  0  0  0  0  0  0  0  0  0
   16.2294   -5.6175   -2.5881 H   0  0  0  0  0  0  0  0  0  0  0  0
   14.6773   -5.3529   -3.3885 H   0  0  0  0  0  0  0  0  0  0  0  0
   16.4722   -2.9890   -1.1828 H   0  0  0  0  0  0  0  0  0  0  0  0
   17.1721   -1.9504   -2.4152 H   0  0  0  0  0  0  0  0  0  0  0  0
   17.8065   -3.5771   -2.1675 H   0  0  0  0  0  0  0  0  0  0  0  0
   17.9957   -0.3358   -6.6912 H   0  0  0  0  0  0  0  0  0  0  0  0
   18.6454    1.7480   -6.2350 H   0  0  0  0  0  0  0  0  0  0  0  0
   18.0132    2.7899   -3.5388 H   0  0  0  0  0  0  0  0  0  0  0  0
   19.2599    3.3584   -4.6549 H   0  0  0  0  0  0  0  0  0  0  0  0
   18.4891    4.5309   -6.8465 H   0  0  0  0  0  0  0  0  0  0  0  0
   16.9536    6.2056   -7.7283 H   0  0  0  0  0  0  0  0  0  0  0  0
   14.8778    5.9988   -9.3954 H   0  0  0  0  0  0  0  0  0  0  0  0
   13.2125    6.4720   -9.7466 H   0  0  0  0  0  0  0  0  0  0  0  0
   13.5417    5.1683   -8.5898 H   0  0  0  0  0  0  0  0  0  0  0  0
   12.9278   10.0285   -6.8388 H   0  0  0  0  0  0  0  0  0  0  0  0
   14.2800    5.4766   -4.4473 H   0  0  0  0  0  0  0  0  0  0  0  0
   15.8161    3.8035   -3.5678 H   0  0  0  0  0  0  0  0  0  0  0  0
   15.2861    1.0560   -6.6885 H   0  0  0  0  0  0  0  0  0  0  0  0
   16.5378    1.0893   -7.9442 H   0  0  0  0  0  0  0  0  0  0  0  0
   14.3776   -0.5183   -8.2179 H   0  0  0  0  0  0  0  0  0  0  0  0
   17.1047   -1.1820   -8.6502 H   0  0  0  0  0  0  0  0  0  0  0  0
   15.3824   -2.7964   -7.0817 H   0  0  0  0  0  0  0  0  0  0  0  0
   14.4189   -1.6455   -6.0952 H   0  0  0  0  0  0  0  0  0  0  0  0
  1 34  1  0  0  0  0
  1 35  1  0  0  0  0
  1 36  1  0  0  0  0
  1  2  1  0  0  0  0
  2  3  2  0  0  0  0
  2  4  1  0  0  0  0
  4 37  1  0  0  0  0
  5  4  1  0  0  0  0
  5 38  1  0  0  0  0
  5  6  1  0  0  0  0
  5 10  1  0  0  0  0
  6  7  1  0  0  0  0
  6  8  1  0  0  0  0
  6  9  1  0  0  0  0
  7 39  1  0  0  0  0
  7 40  1  0  0  0  0
  7 41  1  0  0  0  0
  8 42  1  0  0  0  0
  8 43  1  0  0  0  0
  8 44  1  0  0  0  0
  9 45  1  0  0  0  0
  9 46  1  0  0  0  0
  9 47  1  0  0  0  0
 10 11  2  0  0  0  0
 10 12  1  0  0  0  0
 12 33  1  0  0  0  0
 13 12  1  0  0  0  0
 13 30  1  0  0  0  0
 13 48  1  0  0  0  0
 13 14  1  0  0  0  0
 14 15  2  0  0  0  0
 14 16  1  0  0  0  0
 16 49  1  0  0  0  0
 16 17  1  0  0  0  0
 17 50  1  0  0  0  0
 17 51  1  0  0  0  0
 17 18  1  0  0  0  0
 18 19  1  0  0  0  0
 18 29  2  0  0  0  0
 19 52  1  0  0  0  0
 19 20  2  0  0  0  0
 20 53  1  0  0  0  0
 20 21  1  0  0  0  0
 21 28  2  0  0  0  0
 21 22  1  0  0  0  0
 22 23  2  0  0  0  0
 22 27  1  0  0  0  0
 23 24  1  0  0  0  0
 23 25  1  0  0  0  0
 24 54  1  0  0  0  0
 24 55  1  0  0  0  0
 24 56  1  0  0  0  0
 25 26  2  0  0  0  0
 26 57  1  0  0  0  0
 26 27  1  0  0  0  0
 28 58  1  0  0  0  0
 28 29  1  0  0  0  0
 29 59  1  0  0  0  0
 31 30  1  0  0  0  0
 30 60  1  0  0  0  0
 30 61  1  0  0  0  0
 31 33  1  0  0  0  0
 31 62  1  0  0  0  0
 31 32  1  0  0  0  0
 32 63  1  0  0  0  0
 33 64  1  0  0  0  0
 33 65  1  0  0  0  0
M  ZZC   1 c1
M  ZZC   2 c2
M  ZZC   3 o1
M  ZZC   4 n1
M  ZZC   5 c3
M  ZZC   6 c4
M  ZZC   7 c5
M  ZZC   8 c6
M  ZZC   9 c7
M  ZZC  10 c8
M  ZZC  11 o2
M  ZZC  12 n2
M  ZZC  13 c9
M  ZZC  14 c10
M  ZZC  15 o3
M  ZZC  16 n3
M  ZZC  17 c11
M  ZZC  18 c12
M  ZZC  19 c13
M  ZZC  20 c14
M  ZZC  21 c15
M  ZZC  22 c16
M  ZZC  23 c17
M  ZZC  24 c18
M  ZZC  25 n4
M  ZZC  26 c19
M  ZZC  27 s1
M  ZZC  28 c20
M  ZZC  29 c21
M  ZZC  30 c22
M  ZZC  31 c23
M  ZZC  32 o4
M  ZZC  33 c24
M  ZZC  34 h11
M  ZZC  35 h12
M  ZZC  36 h13
M  ZZC  37 h01
M  ZZC  38 h31
M  ZZC  39 h51
M  ZZC  40 h52
M  ZZC  41 h53
M  ZZC  42 h61
M  ZZC  43 h62
M  ZZC  44 h63
M  ZZC  45 h71
M  ZZC  46 h72
M  ZZC  47 h73
M  ZZC  48 h91
M  ZZC  49 h02
M  ZZC  50 h111
M  ZZC  51 h112
M  ZZC  52 h131
M  ZZC  53 h141
M  ZZC  54 h181
M  ZZC  55 h182
M  ZZC  56 h183
M  ZZC  57 h191
M  ZZC  58 h201
M  ZZC  59 h211
M  ZZC  60 h221
M  ZZC  61 h222
M  ZZC  62 h231
M  ZZC  63 h41
M  ZZC  64 h241
M  ZZC  65 h242
M  ZZM   1 1
M  ZZI   1 111
M  ZZM   2 3
M  ZZI   2 121
M  ZZM   3 7
M  ZZI   3 81
M  ZZM   4 10
M  ZZI   4 211
M  ZZM   5 1
M  ZZI   5 113
M  ZZM   6 1
M  ZZI   6 110
M  ZZM   7 1
M  ZZI   7 111
M  ZZM   8 1
M  ZZI   8 111
M  ZZM   9 1
M  ZZI   9 111
M  ZZM  10 3
M  ZZI  10 121
M  ZZM  11 7
M  ZZI  11 81
M  ZZM  12 10
M  ZZI  12 192
M  ZZM  13 1
M  ZZI  13 113
M  ZZM  14 3
M  ZZI  14 121
M  ZZM  15 7
M  ZZI  15 81
M  ZZM  16 10
M  ZZI  16 211
M  ZZM  17 1
M  ZZI  17 112
M  ZZM  18 37
M  ZZI  18 124
M  ZZM  19 37
M  ZZI  19 125
M  ZZM  20 37
M  ZZI  20 125
M  ZZM  21 37
M  ZZI  21 124
M  ZZM  22 63
M  ZZI  22 104
M  ZZM  23 64
M  ZZI  23 105
M  ZZM  24 1
M  ZZI  24 111
M  ZZM  25 66
M  ZZI  25 222
M  ZZM  26 63
M  ZZI  26 104
M  ZZM  27 44
M  ZZI  27 248
M  ZZM  28 37
M  ZZI  28 125
M  ZZM  29 37
M  ZZI  29 125
M  ZZM  30 1
M  ZZI  30 112
M  ZZM  31 1
M  ZZI  31 113
M  ZZM  32 6
M  ZZI  32 60
M  ZZM  33 1
M  ZZI  33 112
M  ZZM  34 5
M  ZZI  34 1
M  ZZM  35 5
M  ZZI  35 1
M  ZZM  36 5
M  ZZI  36 1
M  ZZM  37 28
M  ZZI  37 11
M  ZZM  38 5
M  ZZI  38 1
M  ZZM  39 5
M  ZZI  39 1
M  ZZM  40 5
M  ZZI  40 1
M  ZZM  41 5
M  ZZI  41 1
M  ZZM  42 5
M  ZZI  42 1
M  ZZM  43 5
M  ZZI  43 1
M  ZZM  44 5
M  ZZI  44 1
M  ZZM  45 5
M  ZZI  45 1
M  ZZM  46 5
M  ZZI  46 1
M  ZZM  47 5
M  ZZI  47 1
M  ZZM  48 5
M  ZZI  48 1
M  ZZM  49 28
M  ZZI  49 11
M  ZZM  50 5
M  ZZI  50 1
M  ZZM  51 5
M  ZZI  51 1
M  ZZM  52 5
M  ZZI  52 1
M  ZZM  53 5
M  ZZI  53 1
M  ZZM  54 5
M  ZZI  54 1
M  ZZM  55 5
M  ZZI  55 1
M  ZZM  56 5
M  ZZI  56 1
M  ZZM  57 5
M  ZZI  57 1
M  ZZM  58 5
M  ZZI  58 1
M  ZZM  59 5
M  ZZI  59 1
M  ZZM  60 5
M  ZZI  60 1
M  ZZM  61 5
M  ZZI  61 1
M  ZZM  62 5
M  ZZI  62 1
M  ZZM  63 21
M  ZZI  63 20
M  ZZM  64 5
M  ZZI  64 1
M  ZZM  65 5
M  ZZI  65 1
M  END
> <IX>
1

> <NAME>
VHL_2GQG_9.pdb

> <Score>
-24.58545

> <Natom>
65

> <Nflex>
8

> <Hbond>
-7.801655

> <Hphob>
-6.485335

> <VwInt>
-30.242057

> <Dsolv>
21.269744

> <SolEl>
10.059351

> <Eintl>
3.914148

> <RecConf>
ND

> <projPath>
VHL_maps/

> <NAME_>
VHL_2GQG_9.pdb

$$$$
