VHL_5G0I_5.pdb
  MOLSOFT 04032206393D

 65 67  0  0  1  0  0  0  0  0999 V2000
    0.6004    1.9872  -18.1188 C   0  0  0  0  0  0  0  0  0  0  0  0
    1.6029    0.8763  -17.9924 C   0  0  0  0  0  0  0  0  0  0  0  0
    1.2732   -0.2780  -17.7642 O   0  0  0  0  0  0  0  0  0  0  0  0
    2.8999    1.3021  -18.1893 N   0  0  0  0  0  0  0  0  0  0  0  0
    4.0433    0.3852  -18.1820 C   0  0  1  0  0  0  0  0  0  0  0  0
    4.4384   -0.0797  -19.6235 C   0  0  0  0  0  0  0  0  0  0  0  0
    4.6978    1.1016  -20.5649 C   0  0  0  0  0  0  0  0  0  0  0  0
    5.7031   -0.9516  -19.6143 C   0  0  0  0  0  0  0  0  0  0  0  0
    3.3056   -0.9191  -20.2380 C   0  0  0  0  0  0  0  0  0  0  0  0
    5.1600    1.1257  -17.4176 C   0  0  0  0  0  0  0  0  0  0  0  0
    5.3737    2.3141  -17.6237 O   0  0  0  0  0  0  0  0  0  0  0  0
    5.9129    0.3999  -16.4886 N   0  0  0  0  0  0  0  0  0  0  0  0
    5.7585   -0.9944  -16.0738 C   0  0  2  0  0  0  0  0  0  0  0  0
    4.5439   -1.2159  -15.1697 C   0  0  0  0  0  0  0  0  0  0  0  0
    4.2138   -0.4149  -14.3074 O   0  0  0  0  0  0  0  0  0  0  0  0
    3.8895   -2.4149  -15.4059 N   0  0  0  0  0  0  0  0  0  0  0  0
    2.6219   -2.7432  -14.7801 C   0  0  0  0  0  0  0  0  0  0  0  0
    2.6935   -3.9189  -13.8381 C   0  0  0  0  0  0  0  0  0  0  0  0
    2.6568   -3.7308  -12.4607 C   0  0  0  0  0  0  0  0  0  0  0  0
    2.6543   -4.8105  -11.5912 C   0  0  0  0  0  0  0  0  0  0  0  0
    2.6775   -6.1212  -12.0658 C   0  0  0  0  0  0  0  0  0  0  0  0
    2.6145   -7.2655  -11.1514 C   0  0  0  0  0  0  0  0  0  0  0  0
    3.2946   -8.4805  -11.1451 C   0  0  0  0  0  0  0  0  0  0  0  0
    4.3211   -8.9366  -12.1031 C   0  0  0  0  0  0  0  0  0  0  0  0
    2.9679   -9.3426  -10.1176 N   0  0  0  0  0  0  0  0  0  0  0  0
    2.0157   -8.8117   -9.3857 C   0  0  0  0  0  0  0  0  0  0  0  0
    1.5127   -7.2425   -9.8257 S   0  0  0  0  0  0  0  0  0  0  0  0
    2.7405   -6.3030  -13.4461 C   0  0  0  0  0  0  0  0  0  0  0  0
    2.7559   -5.2233  -14.3164 C   0  0  0  0  0  0  0  0  0  0  0  0
    7.0300   -1.2975  -15.2981 C   0  0  0  0  0  0  0  0  0  0  0  0
    7.4737    0.0429  -14.7511 C   0  0  1  0  0  0  0  0  0  0  0  0
    8.8800    0.0524  -14.4993 O   0  0  0  0  0  0  0  0  0  0  0  0
    7.0850    0.9896  -15.8717 C   0  0  0  0  0  0  0  0  0  0  0  0
    0.8822    2.8085  -17.4585 H   0  0  0  0  0  0  0  0  0  0  0  0
   -0.3919    1.6288  -17.8315 H   0  0  0  0  0  0  0  0  0  0  0  0
    0.5701    2.3434  -19.1528 H   0  0  0  0  0  0  0  0  0  0  0  0
    3.0820    2.2999  -18.2881 H   0  0  0  0  0  0  0  0  0  0  0  0
    3.7399   -0.4901  -17.6045 H   0  0  0  0  0  0  0  0  0  0  0  0
    4.9507    0.7606  -21.5742 H   0  0  0  0  0  0  0  0  0  0  0  0
    5.5387    1.7042  -20.2148 H   0  0  0  0  0  0  0  0  0  0  0  0
    3.8178    1.7450  -20.6620 H   0  0  0  0  0  0  0  0  0  0  0  0
    5.9953   -1.2384  -20.6299 H   0  0  0  0  0  0  0  0  0  0  0  0
    5.5446   -1.8822  -19.0629 H   0  0  0  0  0  0  0  0  0  0  0  0
    6.5603   -0.4320  -19.1754 H   0  0  0  0  0  0  0  0  0  0  0  0
    3.5967   -1.3344  -21.2085 H   0  0  0  0  0  0  0  0  0  0  0  0
    2.4017   -0.3268  -20.4097 H   0  0  0  0  0  0  0  0  0  0  0  0
    3.0370   -1.7620  -19.5931 H   0  0  0  0  0  0  0  0  0  0  0  0
    5.6775   -1.6427  -16.9474 H   0  0  0  0  0  0  0  0  0  0  0  0
    4.2611   -3.0729  -16.0822 H   0  0  0  0  0  0  0  0  0  0  0  0
    2.2316   -1.8655  -14.2609 H   0  0  0  0  0  0  0  0  0  0  0  0
    1.9136   -2.9637  -15.5854 H   0  0  0  0  0  0  0  0  0  0  0  0
    2.6197   -2.7271  -12.0474 H   0  0  0  0  0  0  0  0  0  0  0  0
    2.6315   -4.6099  -10.5242 H   0  0  0  0  0  0  0  0  0  0  0  0
    3.8600   -9.4599  -12.9454 H   0  0  0  0  0  0  0  0  0  0  0  0
    5.0267   -9.6190  -11.6230 H   0  0  0  0  0  0  0  0  0  0  0  0
    4.8899   -8.0920  -12.4891 H   0  0  0  0  0  0  0  0  0  0  0  0
    1.5749   -9.3281   -8.5449 H   0  0  0  0  0  0  0  0  0  0  0  0
    2.7511   -7.3028  -13.8680 H   0  0  0  0  0  0  0  0  0  0  0  0
    2.7877   -5.4102  -15.3857 H   0  0  0  0  0  0  0  0  0  0  0  0
    6.8673   -2.0025  -14.4860 H   0  0  0  0  0  0  0  0  0  0  0  0
    7.8004   -1.7160  -15.9572 H   0  0  0  0  0  0  0  0  0  0  0  0
    6.9419    0.2887  -13.8249 H   0  0  0  0  0  0  0  0  0  0  0  0
    9.0961   -0.7192  -13.9423 H   0  0  0  0  0  0  0  0  0  0  0  0
    7.8683    1.0447  -16.6332 H   0  0  0  0  0  0  0  0  0  0  0  0
    6.8867    2.0082  -15.5321 H   0  0  0  0  0  0  0  0  0  0  0  0
  1 34  1  0  0  0  0
  1 35  1  0  0  0  0
  1 36  1  0  0  0  0
  1  2  1  0  0  0  0
  2  3  2  0  0  0  0
  2  4  1  0  0  0  0
  4 37  1  0  0  0  0
  5  4  1  0  0  0  0
  5 38  1  0  0  0  0
  5  6  1  0  0  0  0
  5 10  1  0  0  0  0
  6  7  1  0  0  0  0
  6  8  1  0  0  0  0
  6  9  1  0  0  0  0
  7 39  1  0  0  0  0
  7 40  1  0  0  0  0
  7 41  1  0  0  0  0
  8 42  1  0  0  0  0
  8 43  1  0  0  0  0
  8 44  1  0  0  0  0
  9 45  1  0  0  0  0
  9 46  1  0  0  0  0
  9 47  1  0  0  0  0
 10 11  2  0  0  0  0
 10 12  1  0  0  0  0
 12 33  1  0  0  0  0
 13 12  1  0  0  0  0
 13 30  1  0  0  0  0
 13 48  1  0  0  0  0
 13 14  1  0  0  0  0
 14 15  2  0  0  0  0
 14 16  1  0  0  0  0
 16 49  1  0  0  0  0
 16 17  1  0  0  0  0
 17 50  1  0  0  0  0
 17 51  1  0  0  0  0
 17 18  1  0  0  0  0
 18 19  1  0  0  0  0
 18 29  2  0  0  0  0
 19 52  1  0  0  0  0
 19 20  2  0  0  0  0
 20 53  1  0  0  0  0
 20 21  1  0  0  0  0
 21 28  2  0  0  0  0
 21 22  1  0  0  0  0
 22 23  2  0  0  0  0
 22 27  1  0  0  0  0
 23 24  1  0  0  0  0
 23 25  1  0  0  0  0
 24 54  1  0  0  0  0
 24 55  1  0  0  0  0
 24 56  1  0  0  0  0
 25 26  2  0  0  0  0
 26 57  1  0  0  0  0
 26 27  1  0  0  0  0
 28 58  1  0  0  0  0
 28 29  1  0  0  0  0
 29 59  1  0  0  0  0
 31 30  1  0  0  0  0
 30 60  1  0  0  0  0
 30 61  1  0  0  0  0
 31 33  1  0  0  0  0
 31 62  1  0  0  0  0
 31 32  1  0  0  0  0
 32 63  1  0  0  0  0
 33 64  1  0  0  0  0
 33 65  1  0  0  0  0
M  ZZC   1 c1
M  ZZC   2 c2
M  ZZC   3 o1
M  ZZC   4 n1
M  ZZC   5 c3
M  ZZC   6 c4
M  ZZC   7 c5
M  ZZC   8 c6
M  ZZC   9 c7
M  ZZC  10 c8
M  ZZC  11 o2
M  ZZC  12 n2
M  ZZC  13 c9
M  ZZC  14 c10
M  ZZC  15 o3
M  ZZC  16 n3
M  ZZC  17 c11
M  ZZC  18 c12
M  ZZC  19 c13
M  ZZC  20 c14
M  ZZC  21 c15
M  ZZC  22 c16
M  ZZC  23 c17
M  ZZC  24 c18
M  ZZC  25 n4
M  ZZC  26 c19
M  ZZC  27 s1
M  ZZC  28 c20
M  ZZC  29 c21
M  ZZC  30 c22
M  ZZC  31 c23
M  ZZC  32 o4
M  ZZC  33 c24
M  ZZC  34 h11
M  ZZC  35 h12
M  ZZC  36 h13
M  ZZC  37 h01
M  ZZC  38 h31
M  ZZC  39 h51
M  ZZC  40 h52
M  ZZC  41 h53
M  ZZC  42 h61
M  ZZC  43 h62
M  ZZC  44 h63
M  ZZC  45 h71
M  ZZC  46 h72
M  ZZC  47 h73
M  ZZC  48 h91
M  ZZC  49 h02
M  ZZC  50 h111
M  ZZC  51 h112
M  ZZC  52 h131
M  ZZC  53 h141
M  ZZC  54 h181
M  ZZC  55 h182
M  ZZC  56 h183
M  ZZC  57 h191
M  ZZC  58 h201
M  ZZC  59 h211
M  ZZC  60 h221
M  ZZC  61 h222
M  ZZC  62 h231
M  ZZC  63 h41
M  ZZC  64 h241
M  ZZC  65 h242
M  ZZM   1 1
M  ZZI   1 111
M  ZZM   2 3
M  ZZI   2 121
M  ZZM   3 7
M  ZZI   3 81
M  ZZM   4 10
M  ZZI   4 211
M  ZZM   5 1
M  ZZI   5 113
M  ZZM   6 1
M  ZZI   6 110
M  ZZM   7 1
M  ZZI   7 111
M  ZZM   8 1
M  ZZI   8 111
M  ZZM   9 1
M  ZZI   9 111
M  ZZM  10 3
M  ZZI  10 121
M  ZZM  11 7
M  ZZI  11 81
M  ZZM  12 10
M  ZZI  12 192
M  ZZM  13 1
M  ZZI  13 113
M  ZZM  14 3
M  ZZI  14 121
M  ZZM  15 7
M  ZZI  15 81
M  ZZM  16 10
M  ZZI  16 211
M  ZZM  17 1
M  ZZI  17 112
M  ZZM  18 37
M  ZZI  18 124
M  ZZM  19 37
M  ZZI  19 125
M  ZZM  20 37
M  ZZI  20 125
M  ZZM  21 37
M  ZZI  21 124
M  ZZM  22 63
M  ZZI  22 104
M  ZZM  23 64
M  ZZI  23 105
M  ZZM  24 1
M  ZZI  24 111
M  ZZM  25 66
M  ZZI  25 222
M  ZZM  26 63
M  ZZI  26 104
M  ZZM  27 44
M  ZZI  27 248
M  ZZM  28 37
M  ZZI  28 125
M  ZZM  29 37
M  ZZI  29 125
M  ZZM  30 1
M  ZZI  30 112
M  ZZM  31 1
M  ZZI  31 113
M  ZZM  32 6
M  ZZI  32 60
M  ZZM  33 1
M  ZZI  33 112
M  ZZM  34 5
M  ZZI  34 1
M  ZZM  35 5
M  ZZI  35 1
M  ZZM  36 5
M  ZZI  36 1
M  ZZM  37 28
M  ZZI  37 11
M  ZZM  38 5
M  ZZI  38 1
M  ZZM  39 5
M  ZZI  39 1
M  ZZM  40 5
M  ZZI  40 1
M  ZZM  41 5
M  ZZI  41 1
M  ZZM  42 5
M  ZZI  42 1
M  ZZM  43 5
M  ZZI  43 1
M  ZZM  44 5
M  ZZI  44 1
M  ZZM  45 5
M  ZZI  45 1
M  ZZM  46 5
M  ZZI  46 1
M  ZZM  47 5
M  ZZI  47 1
M  ZZM  48 5
M  ZZI  48 1
M  ZZM  49 28
M  ZZI  49 11
M  ZZM  50 5
M  ZZI  50 1
M  ZZM  51 5
M  ZZI  51 1
M  ZZM  52 5
M  ZZI  52 1
M  ZZM  53 5
M  ZZI  53 1
M  ZZM  54 5
M  ZZI  54 1
M  ZZM  55 5
M  ZZI  55 1
M  ZZM  56 5
M  ZZI  56 1
M  ZZM  57 5
M  ZZI  57 1
M  ZZM  58 5
M  ZZI  58 1
M  ZZM  59 5
M  ZZI  59 1
M  ZZM  60 5
M  ZZI  60 1
M  ZZM  61 5
M  ZZI  61 1
M  ZZM  62 5
M  ZZI  62 1
M  ZZM  63 21
M  ZZI  63 20
M  ZZM  64 5
M  ZZI  64 1
M  ZZM  65 5
M  ZZI  65 1
M  END
> <IX>
1

> <NAME>
VHL_5G0I_5.pdb

> <Score>
-20.19417

> <Natom>
65

> <Nflex>
8

> <Hbond>
-7.510403

> <Hphob>
-6.381507

> <VwInt>
-22.706917

> <Dsolv>
15.185415

> <SolEl>
10.569932

> <Eintl>
4.374097

> <RecConf>
ND

> <projPath>
VHL_maps/

> <NAME_>
VHL_5G0I_5.pdb

$$$$
