VHL_2GQG_19.pdb
  MOLSOFT 04032206373D

 65 67  0  0  1  0  0  0  0  0999 V2000
   18.4029   -6.7618   -5.3909 C   0  0  0  0  0  0  0  0  0  0  0  0
   17.1811   -5.8888   -5.2867 C   0  0  0  0  0  0  0  0  0  0  0  0
   16.0864   -6.3029   -5.6325 O   0  0  0  0  0  0  0  0  0  0  0  0
   17.4301   -4.6398   -4.7490 N   0  0  0  0  0  0  0  0  0  0  0  0
   16.4047   -3.6111   -4.5387 C   0  0  1  0  0  0  0  0  0  0  0  0
   15.8150   -3.6255   -3.0908 C   0  0  0  0  0  0  0  0  0  0  0  0
   15.3925   -5.0425   -2.6767 C   0  0  0  0  0  0  0  0  0  0  0  0
   16.8201   -3.1186   -2.0453 C   0  0  0  0  0  0  0  0  0  0  0  0
   14.5563   -2.7494   -3.0290 C   0  0  0  0  0  0  0  0  0  0  0  0
   17.0408   -2.2565   -4.9232 C   0  0  0  0  0  0  0  0  0  0  0  0
   18.1428   -1.9420   -4.4987 O   0  0  0  0  0  0  0  0  0  0  0  0
   16.3200   -1.3722   -5.7339 N   0  0  0  0  0  0  0  0  0  0  0  0
   16.8364   -0.0303   -6.0179 C   0  0  2  0  0  0  0  0  0  0  0  0
   16.7482    0.9217   -4.8208 C   0  0  0  0  0  0  0  0  0  0  0  0
   17.5860    1.7940   -4.6417 O   0  0  0  0  0  0  0  0  0  0  0  0
   15.5745    0.8307   -4.0932 N   0  0  0  0  0  0  0  0  0  0  0  0
   15.2418    1.7335   -3.0077 C   0  0  0  0  0  0  0  0  0  0  0  0
   14.9958    0.9895   -1.7220 C   0  0  0  0  0  0  0  0  0  0  0  0
   13.7052    0.7763   -1.2476 C   0  0  0  0  0  0  0  0  0  0  0  0
   13.4913    0.0648   -0.0786 C   0  0  0  0  0  0  0  0  0  0  0  0
   14.5589   -0.4460    0.6493 C   0  0  0  0  0  0  0  0  0  0  0  0
   14.3241   -1.1938    1.8752 C   0  0  0  0  0  0  0  0  0  0  0  0
   13.7801   -0.7958    3.0893 C   0  0  0  0  0  0  0  0  0  0  0  0
   13.3476    0.5708    3.4683 C   0  0  0  0  0  0  0  0  0  0  0  0
   13.6665   -1.7973    4.0341 N   0  0  0  0  0  0  0  0  0  0  0  0
   14.1381   -2.9218    3.5452 C   0  0  0  0  0  0  0  0  0  0  0  0
   14.7470   -2.8579    1.9518 S   0  0  0  0  0  0  0  0  0  0  0  0
   15.8490   -0.2268    0.1801 C   0  0  0  0  0  0  0  0  0  0  0  0
   16.0633    0.4803   -0.9907 C   0  0  0  0  0  0  0  0  0  0  0  0
   15.9589    0.5127   -7.1448 C   0  0  0  0  0  0  0  0  0  0  0  0
   15.3564   -0.7189   -7.7886 C   0  0  1  0  0  0  0  0  0  0  0  0
   16.1974   -1.1880   -8.8517 O   0  0  0  0  0  0  0  0  0  0  0  0
   15.2678   -1.7377   -6.6596 C   0  0  0  0  0  0  0  0  0  0  0  0
   19.3246   -6.1754   -5.3348 H   0  0  0  0  0  0  0  0  0  0  0  0
   18.3892   -7.2873   -6.3498 H   0  0  0  0  0  0  0  0  0  0  0  0
   18.3869   -7.4929   -4.5788 H   0  0  0  0  0  0  0  0  0  0  0  0
   18.3797   -4.4205   -4.4713 H   0  0  0  0  0  0  0  0  0  0  0  0
   15.5992   -3.8314   -5.2273 H   0  0  0  0  0  0  0  0  0  0  0  0
   14.9254   -5.0479   -1.6872 H   0  0  0  0  0  0  0  0  0  0  0  0
   16.2410   -5.7301   -2.6283 H   0  0  0  0  0  0  0  0  0  0  0  0
   14.6619   -5.4545   -3.3744 H   0  0  0  0  0  0  0  0  0  0  0  0
   16.4253   -3.2207   -1.0299 H   0  0  0  0  0  0  0  0  0  0  0  0
   17.0625   -2.0627   -2.1868 H   0  0  0  0  0  0  0  0  0  0  0  0
   17.7572   -3.6767   -2.0847 H   0  0  0  0  0  0  0  0  0  0  0  0
   14.7804   -1.7065   -3.2471 H   0  0  0  0  0  0  0  0  0  0  0  0
   14.0961   -2.7746   -2.0361 H   0  0  0  0  0  0  0  0  0  0  0  0
   13.8007   -3.0808   -3.7484 H   0  0  0  0  0  0  0  0  0  0  0  0
   17.8846   -0.1186   -6.3231 H   0  0  0  0  0  0  0  0  0  0  0  0
   14.9043    0.1124   -4.3392 H   0  0  0  0  0  0  0  0  0  0  0  0
   16.0340    2.4761   -2.8663 H   0  0  0  0  0  0  0  0  0  0  0  0
   14.3430    2.2802   -3.3115 H   0  0  0  0  0  0  0  0  0  0  0  0
   12.8492    1.1632   -1.7924 H   0  0  0  0  0  0  0  0  0  0  0  0
   12.4748   -0.0987    0.2642 H   0  0  0  0  0  0  0  0  0  0  0  0
   14.2174    1.2029    3.6676 H   0  0  0  0  0  0  0  0  0  0  0  0
   12.7326    0.5506    4.3730 H   0  0  0  0  0  0  0  0  0  0  0  0
   12.7580    1.0436    2.6779 H   0  0  0  0  0  0  0  0  0  0  0  0
   14.1467   -3.8398    4.1151 H   0  0  0  0  0  0  0  0  0  0  0  0
   16.7066   -0.6100    0.7256 H   0  0  0  0  0  0  0  0  0  0  0  0
   17.0821    0.6268   -1.3397 H   0  0  0  0  0  0  0  0  0  0  0  0
   15.1572    1.1498   -6.7551 H   0  0  0  0  0  0  0  0  0  0  0  0
   16.5432    1.1153   -7.8483 H   0  0  0  0  0  0  0  0  0  0  0  0
   14.3741   -0.5081   -8.2112 H   0  0  0  0  0  0  0  0  0  0  0  0
   17.1230   -1.0939   -8.5588 H   0  0  0  0  0  0  0  0  0  0  0  0
   15.4106   -2.7588   -7.0231 H   0  0  0  0  0  0  0  0  0  0  0  0
   14.3188   -1.6576   -6.1189 H   0  0  0  0  0  0  0  0  0  0  0  0
  1 34  1  0  0  0  0
  1 35  1  0  0  0  0
  1 36  1  0  0  0  0
  1  2  1  0  0  0  0
  2  3  2  0  0  0  0
  2  4  1  0  0  0  0
  4 37  1  0  0  0  0
  5  4  1  0  0  0  0
  5 38  1  0  0  0  0
  5  6  1  0  0  0  0
  5 10  1  0  0  0  0
  6  7  1  0  0  0  0
  6  8  1  0  0  0  0
  6  9  1  0  0  0  0
  7 39  1  0  0  0  0
  7 40  1  0  0  0  0
  7 41  1  0  0  0  0
  8 42  1  0  0  0  0
  8 43  1  0  0  0  0
  8 44  1  0  0  0  0
  9 45  1  0  0  0  0
  9 46  1  0  0  0  0
  9 47  1  0  0  0  0
 10 11  2  0  0  0  0
 10 12  1  0  0  0  0
 12 33  1  0  0  0  0
 13 12  1  0  0  0  0
 13 30  1  0  0  0  0
 13 48  1  0  0  0  0
 13 14  1  0  0  0  0
 14 15  2  0  0  0  0
 14 16  1  0  0  0  0
 16 49  1  0  0  0  0
 16 17  1  0  0  0  0
 17 50  1  0  0  0  0
 17 51  1  0  0  0  0
 17 18  1  0  0  0  0
 18 19  1  0  0  0  0
 18 29  2  0  0  0  0
 19 52  1  0  0  0  0
 19 20  2  0  0  0  0
 20 53  1  0  0  0  0
 20 21  1  0  0  0  0
 21 28  2  0  0  0  0
 21 22  1  0  0  0  0
 22 23  2  0  0  0  0
 22 27  1  0  0  0  0
 23 24  1  0  0  0  0
 23 25  1  0  0  0  0
 24 54  1  0  0  0  0
 24 55  1  0  0  0  0
 24 56  1  0  0  0  0
 25 26  2  0  0  0  0
 26 57  1  0  0  0  0
 26 27  1  0  0  0  0
 28 58  1  0  0  0  0
 28 29  1  0  0  0  0
 29 59  1  0  0  0  0
 31 30  1  0  0  0  0
 30 60  1  0  0  0  0
 30 61  1  0  0  0  0
 31 33  1  0  0  0  0
 31 62  1  0  0  0  0
 31 32  1  0  0  0  0
 32 63  1  0  0  0  0
 33 64  1  0  0  0  0
 33 65  1  0  0  0  0
M  ZZC   1 c1
M  ZZC   2 c2
M  ZZC   3 o1
M  ZZC   4 n1
M  ZZC   5 c3
M  ZZC   6 c4
M  ZZC   7 c5
M  ZZC   8 c6
M  ZZC   9 c7
M  ZZC  10 c8
M  ZZC  11 o2
M  ZZC  12 n2
M  ZZC  13 c9
M  ZZC  14 c10
M  ZZC  15 o3
M  ZZC  16 n3
M  ZZC  17 c11
M  ZZC  18 c12
M  ZZC  19 c13
M  ZZC  20 c14
M  ZZC  21 c15
M  ZZC  22 c16
M  ZZC  23 c17
M  ZZC  24 c18
M  ZZC  25 n4
M  ZZC  26 c19
M  ZZC  27 s1
M  ZZC  28 c20
M  ZZC  29 c21
M  ZZC  30 c22
M  ZZC  31 c23
M  ZZC  32 o4
M  ZZC  33 c24
M  ZZC  34 h11
M  ZZC  35 h12
M  ZZC  36 h13
M  ZZC  37 h01
M  ZZC  38 h31
M  ZZC  39 h51
M  ZZC  40 h52
M  ZZC  41 h53
M  ZZC  42 h61
M  ZZC  43 h62
M  ZZC  44 h63
M  ZZC  45 h71
M  ZZC  46 h72
M  ZZC  47 h73
M  ZZC  48 h91
M  ZZC  49 h02
M  ZZC  50 h111
M  ZZC  51 h112
M  ZZC  52 h131
M  ZZC  53 h141
M  ZZC  54 h181
M  ZZC  55 h182
M  ZZC  56 h183
M  ZZC  57 h191
M  ZZC  58 h201
M  ZZC  59 h211
M  ZZC  60 h221
M  ZZC  61 h222
M  ZZC  62 h231
M  ZZC  63 h41
M  ZZC  64 h241
M  ZZC  65 h242
M  ZZM   1 1
M  ZZI   1 111
M  ZZM   2 3
M  ZZI   2 121
M  ZZM   3 7
M  ZZI   3 81
M  ZZM   4 10
M  ZZI   4 211
M  ZZM   5 1
M  ZZI   5 113
M  ZZM   6 1
M  ZZI   6 110
M  ZZM   7 1
M  ZZI   7 111
M  ZZM   8 1
M  ZZI   8 111
M  ZZM   9 1
M  ZZI   9 111
M  ZZM  10 3
M  ZZI  10 121
M  ZZM  11 7
M  ZZI  11 81
M  ZZM  12 10
M  ZZI  12 192
M  ZZM  13 1
M  ZZI  13 113
M  ZZM  14 3
M  ZZI  14 121
M  ZZM  15 7
M  ZZI  15 81
M  ZZM  16 10
M  ZZI  16 211
M  ZZM  17 1
M  ZZI  17 112
M  ZZM  18 37
M  ZZI  18 124
M  ZZM  19 37
M  ZZI  19 125
M  ZZM  20 37
M  ZZI  20 125
M  ZZM  21 37
M  ZZI  21 124
M  ZZM  22 63
M  ZZI  22 104
M  ZZM  23 64
M  ZZI  23 105
M  ZZM  24 1
M  ZZI  24 111
M  ZZM  25 66
M  ZZI  25 222
M  ZZM  26 63
M  ZZI  26 104
M  ZZM  27 44
M  ZZI  27 248
M  ZZM  28 37
M  ZZI  28 125
M  ZZM  29 37
M  ZZI  29 125
M  ZZM  30 1
M  ZZI  30 112
M  ZZM  31 1
M  ZZI  31 113
M  ZZM  32 6
M  ZZI  32 60
M  ZZM  33 1
M  ZZI  33 112
M  ZZM  34 5
M  ZZI  34 1
M  ZZM  35 5
M  ZZI  35 1
M  ZZM  36 5
M  ZZI  36 1
M  ZZM  37 28
M  ZZI  37 11
M  ZZM  38 5
M  ZZI  38 1
M  ZZM  39 5
M  ZZI  39 1
M  ZZM  40 5
M  ZZI  40 1
M  ZZM  41 5
M  ZZI  41 1
M  ZZM  42 5
M  ZZI  42 1
M  ZZM  43 5
M  ZZI  43 1
M  ZZM  44 5
M  ZZI  44 1
M  ZZM  45 5
M  ZZI  45 1
M  ZZM  46 5
M  ZZI  46 1
M  ZZM  47 5
M  ZZI  47 1
M  ZZM  48 5
M  ZZI  48 1
M  ZZM  49 28
M  ZZI  49 11
M  ZZM  50 5
M  ZZI  50 1
M  ZZM  51 5
M  ZZI  51 1
M  ZZM  52 5
M  ZZI  52 1
M  ZZM  53 5
M  ZZI  53 1
M  ZZM  54 5
M  ZZI  54 1
M  ZZM  55 5
M  ZZI  55 1
M  ZZM  56 5
M  ZZI  56 1
M  ZZM  57 5
M  ZZI  57 1
M  ZZM  58 5
M  ZZI  58 1
M  ZZM  59 5
M  ZZI  59 1
M  ZZM  60 5
M  ZZI  60 1
M  ZZM  61 5
M  ZZI  61 1
M  ZZM  62 5
M  ZZI  62 1
M  ZZM  63 21
M  ZZI  63 20
M  ZZM  64 5
M  ZZI  64 1
M  ZZM  65 5
M  ZZI  65 1
M  END
> <IX>
1

> <NAME>
VHL_2GQG_19.pdb

> <Score>
-29.263913

> <Natom>
65

> <Nflex>
8

> <Hbond>
-7.59211

> <Hphob>
-6.736937

> <VwInt>
-28.148231

> <Dsolv>
16.039334

> <SolEl>
6.040493

> <Eintl>
2.983128

> <RecConf>
ND

> <projPath>
VHL_maps/

> <NAME_>
VHL_2GQG_19.pdb

$$$$
