VHL_5T8E_43.pdb
  MOLSOFT 04032206423D

 65 67  0  0  1  0  0  0  0  0999 V2000
   18.3263   -6.8352   -5.3080 C   0  0  0  0  0  0  0  0  0  0  0  0
   17.1385   -5.9130   -5.2716 C   0  0  0  0  0  0  0  0  0  0  0  0
   16.0381   -6.2961   -5.6337 O   0  0  0  0  0  0  0  0  0  0  0  0
   17.4233   -4.6582   -4.7668 N   0  0  0  0  0  0  0  0  0  0  0  0
   16.4415   -3.5742   -4.6422 C   0  0  1  0  0  0  0  0  0  0  0  0
   15.8285   -3.4668   -3.2086 C   0  0  0  0  0  0  0  0  0  0  0  0
   14.6059   -2.5360   -3.2266 C   0  0  0  0  0  0  0  0  0  0  0  0
   15.3495   -4.8401   -2.7105 C   0  0  0  0  0  0  0  0  0  0  0  0
   16.8379   -2.9254   -2.1826 C   0  0  0  0  0  0  0  0  0  0  0  0
   17.1459   -2.2800   -5.0948 C   0  0  0  0  0  0  0  0  0  0  0  0
   18.2946   -2.0442   -4.7518 O   0  0  0  0  0  0  0  0  0  0  0  0
   16.4339   -1.3442   -5.8509 N   0  0  0  0  0  0  0  0  0  0  0  0
   17.0529   -0.0651   -6.1927 C   0  0  2  0  0  0  0  0  0  0  0  0
   17.1869    0.8902   -5.0088 C   0  0  0  0  0  0  0  0  0  0  0  0
   18.2404    1.4668   -4.7761 O   0  0  0  0  0  0  0  0  0  0  0  0
   16.0015    1.1590   -4.3455 N   0  0  0  0  0  0  0  0  0  0  0  0
   15.8642    2.2713   -3.4250 C   0  0  0  0  0  0  0  0  0  0  0  0
   15.3467    3.5096   -4.1204 C   0  0  0  0  0  0  0  0  0  0  0  0
   14.2087    4.1680   -3.6631 C   0  0  0  0  0  0  0  0  0  0  0  0
   13.7458    5.3115   -4.2974 C   0  0  0  0  0  0  0  0  0  0  0  0
   14.4011    5.8254   -5.4137 C   0  0  0  0  0  0  0  0  0  0  0  0
   13.9387    7.0293   -6.0920 C   0  0  0  0  0  0  0  0  0  0  0  0
   13.6207    7.2577   -7.4266 C   0  0  0  0  0  0  0  0  0  0  0  0
   13.6105    6.2678   -8.5293 C   0  0  0  0  0  0  0  0  0  0  0  0
   13.2981    8.5641   -7.7337 N   0  0  0  0  0  0  0  0  0  0  0  0
   13.3702    9.3006   -6.6485 C   0  0  0  0  0  0  0  0  0  0  0  0
   13.7738    8.4909   -5.2037 S   0  0  0  0  0  0  0  0  0  0  0  0
   15.5402    5.1737   -5.8654 C   0  0  0  0  0  0  0  0  0  0  0  0
   16.0109    4.0455   -5.2219 C   0  0  0  0  0  0  0  0  0  0  0  0
   16.1537    0.5486   -7.2665 C   0  0  0  0  0  0  0  0  0  0  0  0
   15.4366   -0.6406   -7.8684 C   0  0  1  0  0  0  0  0  0  0  0  0
   16.2227   -1.1992   -8.9288 O   0  0  0  0  0  0  0  0  0  0  0  0
   15.2995   -1.6213   -6.7100 C   0  0  0  0  0  0  0  0  0  0  0  0
   19.2650   -6.2744   -5.3464 H   0  0  0  0  0  0  0  0  0  0  0  0
   18.2658   -7.4655   -6.1997 H   0  0  0  0  0  0  0  0  0  0  0  0
   18.3112   -7.4675   -4.4174 H   0  0  0  0  0  0  0  0  0  0  0  0
   18.3752   -4.4651   -4.4770 H   0  0  0  0  0  0  0  0  0  0  0  0
   15.6469   -3.7981   -5.3417 H   0  0  0  0  0  0  0  0  0  0  0  0
   14.8754   -1.5109   -3.4913 H   0  0  0  0  0  0  0  0  0  0  0  0
   14.1211   -2.4919   -2.2459 H   0  0  0  0  0  0  0  0  0  0  0  0
   13.8539   -2.8783   -3.9447 H   0  0  0  0  0  0  0  0  0  0  0  0
   14.8573   -4.7646   -1.7360 H   0  0  0  0  0  0  0  0  0  0  0  0
   16.1759   -5.5461   -2.5903 H   0  0  0  0  0  0  0  0  0  0  0  0
   14.6284   -5.2846   -3.3993 H   0  0  0  0  0  0  0  0  0  0  0  0
   16.4245   -2.9463   -1.1689 H   0  0  0  0  0  0  0  0  0  0  0  0
   17.1166   -1.8875   -2.3876 H   0  0  0  0  0  0  0  0  0  0  0  0
   17.7562   -3.5175   -2.1685 H   0  0  0  0  0  0  0  0  0  0  0  0
   18.0541   -0.2611   -6.5801 H   0  0  0  0  0  0  0  0  0  0  0  0
   15.1735    0.6195   -4.5703 H   0  0  0  0  0  0  0  0  0  0  0  0
   15.1713    1.9473   -2.6416 H   0  0  0  0  0  0  0  0  0  0  0  0
   16.8279    2.4885   -2.9518 H   0  0  0  0  0  0  0  0  0  0  0  0
   13.6673    3.7932   -2.7992 H   0  0  0  0  0  0  0  0  0  0  0  0
   12.8518    5.7965   -3.9173 H   0  0  0  0  0  0  0  0  0  0  0  0
   14.6291    6.0466   -8.8608 H   0  0  0  0  0  0  0  0  0  0  0  0
   13.0541    6.6480   -9.3907 H   0  0  0  0  0  0  0  0  0  0  0  0
   13.1359    5.3328   -8.2185 H   0  0  0  0  0  0  0  0  0  0  0  0
   13.1853   10.3639   -6.6546 H   0  0  0  0  0  0  0  0  0  0  0  0
   16.0913    5.5566   -6.7195 H   0  0  0  0  0  0  0  0  0  0  0  0
   16.9201    3.5865   -5.5958 H   0  0  0  0  0  0  0  0  0  0  0  0
   15.4179    1.2394   -6.8423 H   0  0  0  0  0  0  0  0  0  0  0  0
   16.7395    1.1076   -8.0028 H   0  0  0  0  0  0  0  0  0  0  0  0
   14.4666   -0.3608   -8.2810 H   0  0  0  0  0  0  0  0  0  0  0  0
   17.1567   -1.1556   -8.6520 H   0  0  0  0  0  0  0  0  0  0  0  0
   15.3130   -2.6586   -7.0530 H   0  0  0  0  0  0  0  0  0  0  0  0
   14.3928   -1.4264   -6.1280 H   0  0  0  0  0  0  0  0  0  0  0  0
  1 34  1  0  0  0  0
  1 35  1  0  0  0  0
  1 36  1  0  0  0  0
  1  2  1  0  0  0  0
  2  3  2  0  0  0  0
  2  4  1  0  0  0  0
  4 37  1  0  0  0  0
  5  4  1  0  0  0  0
  5 38  1  0  0  0  0
  5  6  1  0  0  0  0
  5 10  1  0  0  0  0
  6  7  1  0  0  0  0
  6  8  1  0  0  0  0
  6  9  1  0  0  0  0
  7 39  1  0  0  0  0
  7 40  1  0  0  0  0
  7 41  1  0  0  0  0
  8 42  1  0  0  0  0
  8 43  1  0  0  0  0
  8 44  1  0  0  0  0
  9 45  1  0  0  0  0
  9 46  1  0  0  0  0
  9 47  1  0  0  0  0
 10 11  2  0  0  0  0
 10 12  1  0  0  0  0
 12 33  1  0  0  0  0
 13 12  1  0  0  0  0
 13 30  1  0  0  0  0
 13 48  1  0  0  0  0
 13 14  1  0  0  0  0
 14 15  2  0  0  0  0
 14 16  1  0  0  0  0
 16 49  1  0  0  0  0
 16 17  1  0  0  0  0
 17 50  1  0  0  0  0
 17 51  1  0  0  0  0
 17 18  1  0  0  0  0
 18 19  1  0  0  0  0
 18 29  2  0  0  0  0
 19 52  1  0  0  0  0
 19 20  2  0  0  0  0
 20 53  1  0  0  0  0
 20 21  1  0  0  0  0
 21 28  2  0  0  0  0
 21 22  1  0  0  0  0
 22 23  2  0  0  0  0
 22 27  1  0  0  0  0
 23 24  1  0  0  0  0
 23 25  1  0  0  0  0
 24 54  1  0  0  0  0
 24 55  1  0  0  0  0
 24 56  1  0  0  0  0
 25 26  2  0  0  0  0
 26 57  1  0  0  0  0
 26 27  1  0  0  0  0
 28 58  1  0  0  0  0
 28 29  1  0  0  0  0
 29 59  1  0  0  0  0
 31 30  1  0  0  0  0
 30 60  1  0  0  0  0
 30 61  1  0  0  0  0
 31 33  1  0  0  0  0
 31 62  1  0  0  0  0
 31 32  1  0  0  0  0
 32 63  1  0  0  0  0
 33 64  1  0  0  0  0
 33 65  1  0  0  0  0
M  ZZC   1 c1
M  ZZC   2 c2
M  ZZC   3 o1
M  ZZC   4 n1
M  ZZC   5 c3
M  ZZC   6 c4
M  ZZC   7 c5
M  ZZC   8 c6
M  ZZC   9 c7
M  ZZC  10 c8
M  ZZC  11 o2
M  ZZC  12 n2
M  ZZC  13 c9
M  ZZC  14 c10
M  ZZC  15 o3
M  ZZC  16 n3
M  ZZC  17 c11
M  ZZC  18 c12
M  ZZC  19 c13
M  ZZC  20 c14
M  ZZC  21 c15
M  ZZC  22 c16
M  ZZC  23 c17
M  ZZC  24 c18
M  ZZC  25 n4
M  ZZC  26 c19
M  ZZC  27 s1
M  ZZC  28 c20
M  ZZC  29 c21
M  ZZC  30 c22
M  ZZC  31 c23
M  ZZC  32 o4
M  ZZC  33 c24
M  ZZC  34 h11
M  ZZC  35 h12
M  ZZC  36 h13
M  ZZC  37 h01
M  ZZC  38 h31
M  ZZC  39 h51
M  ZZC  40 h52
M  ZZC  41 h53
M  ZZC  42 h61
M  ZZC  43 h62
M  ZZC  44 h63
M  ZZC  45 h71
M  ZZC  46 h72
M  ZZC  47 h73
M  ZZC  48 h91
M  ZZC  49 h02
M  ZZC  50 h111
M  ZZC  51 h112
M  ZZC  52 h131
M  ZZC  53 h141
M  ZZC  54 h181
M  ZZC  55 h182
M  ZZC  56 h183
M  ZZC  57 h191
M  ZZC  58 h201
M  ZZC  59 h211
M  ZZC  60 h221
M  ZZC  61 h222
M  ZZC  62 h231
M  ZZC  63 h41
M  ZZC  64 h241
M  ZZC  65 h242
M  ZZM   1 1
M  ZZI   1 111
M  ZZM   2 3
M  ZZI   2 121
M  ZZM   3 7
M  ZZI   3 81
M  ZZM   4 10
M  ZZI   4 211
M  ZZM   5 1
M  ZZI   5 113
M  ZZM   6 1
M  ZZI   6 110
M  ZZM   7 1
M  ZZI   7 111
M  ZZM   8 1
M  ZZI   8 111
M  ZZM   9 1
M  ZZI   9 111
M  ZZM  10 3
M  ZZI  10 121
M  ZZM  11 7
M  ZZI  11 81
M  ZZM  12 10
M  ZZI  12 192
M  ZZM  13 1
M  ZZI  13 113
M  ZZM  14 3
M  ZZI  14 121
M  ZZM  15 7
M  ZZI  15 81
M  ZZM  16 10
M  ZZI  16 211
M  ZZM  17 1
M  ZZI  17 112
M  ZZM  18 37
M  ZZI  18 124
M  ZZM  19 37
M  ZZI  19 125
M  ZZM  20 37
M  ZZI  20 125
M  ZZM  21 37
M  ZZI  21 124
M  ZZM  22 63
M  ZZI  22 104
M  ZZM  23 64
M  ZZI  23 105
M  ZZM  24 1
M  ZZI  24 111
M  ZZM  25 66
M  ZZI  25 222
M  ZZM  26 63
M  ZZI  26 104
M  ZZM  27 44
M  ZZI  27 248
M  ZZM  28 37
M  ZZI  28 125
M  ZZM  29 37
M  ZZI  29 125
M  ZZM  30 1
M  ZZI  30 112
M  ZZM  31 1
M  ZZI  31 113
M  ZZM  32 6
M  ZZI  32 60
M  ZZM  33 1
M  ZZI  33 112
M  ZZM  34 5
M  ZZI  34 1
M  ZZM  35 5
M  ZZI  35 1
M  ZZM  36 5
M  ZZI  36 1
M  ZZM  37 28
M  ZZI  37 11
M  ZZM  38 5
M  ZZI  38 1
M  ZZM  39 5
M  ZZI  39 1
M  ZZM  40 5
M  ZZI  40 1
M  ZZM  41 5
M  ZZI  41 1
M  ZZM  42 5
M  ZZI  42 1
M  ZZM  43 5
M  ZZI  43 1
M  ZZM  44 5
M  ZZI  44 1
M  ZZM  45 5
M  ZZI  45 1
M  ZZM  46 5
M  ZZI  46 1
M  ZZM  47 5
M  ZZI  47 1
M  ZZM  48 5
M  ZZI  48 1
M  ZZM  49 28
M  ZZI  49 11
M  ZZM  50 5
M  ZZI  50 1
M  ZZM  51 5
M  ZZI  51 1
M  ZZM  52 5
M  ZZI  52 1
M  ZZM  53 5
M  ZZI  53 1
M  ZZM  54 5
M  ZZI  54 1
M  ZZM  55 5
M  ZZI  55 1
M  ZZM  56 5
M  ZZI  56 1
M  ZZM  57 5
M  ZZI  57 1
M  ZZM  58 5
M  ZZI  58 1
M  ZZM  59 5
M  ZZI  59 1
M  ZZM  60 5
M  ZZI  60 1
M  ZZM  61 5
M  ZZI  61 1
M  ZZM  62 5
M  ZZI  62 1
M  ZZM  63 21
M  ZZI  63 20
M  ZZM  64 5
M  ZZI  64 1
M  ZZM  65 5
M  ZZI  65 1
M  END
> <IX>
1

> <NAME>
VHL_5T8E_43.pdb

> <Score>
-24.143818

> <Natom>
65

> <Nflex>
8

> <Hbond>
-7.871469

> <Hphob>
-6.619837

> <VwInt>
-31.070087

> <Dsolv>
21.104143

> <SolEl>
9.494866

> <Eintl>
7.302763

> <RecConf>
ND

> <projPath>
VHL_maps/

> <NAME_>
VHL_5T8E_43.pdb

$$$$
