VHL_5T8E_20.pdb
  MOLSOFT 04032206443D

 76 79  0  0  1  0  0  0  0  0999 V2000
   13.6509   -0.8960    2.4394 C   0  0  0  0  0  0  0  0  0  0  0  0
   14.9666   -1.6517    2.5351 C   0  0  0  0  0  0  0  0  0  0  0  0
   15.2015   -2.5070    1.3000 C   0  0  0  0  0  0  0  0  0  0  0  0
   15.0584   -1.7468    0.0597 N   0  0  0  0  0  0  0  0  0  0  0  0
   15.9927   -1.9461   -0.9592 C   0  0  0  0  0  0  0  0  0  0  0  0
   17.0075   -2.6128   -0.8173 O   0  0  0  0  0  0  0  0  0  0  0  0
   15.6667   -1.2931   -2.2867 C   0  0  0  0  0  0  0  0  0  0  0  0
   16.6558   -1.6179   -3.4145 C   0  0  2  0  0  0  0  0  0  0  0  0
   16.3440   -0.7141   -4.5109 N   0  0  0  0  0  0  0  0  0  0  0  0
   17.2494    0.1601   -5.0861 C   0  0  0  0  0  0  0  0  0  0  0  0
   18.4323    0.2155   -4.7840 O   0  0  0  0  0  0  0  0  0  0  0  0
   16.6669    1.0271   -6.2081 C   0  0  2  0  0  0  0  0  0  0  0  0
   15.2268    0.8501   -6.3748 N   0  0  0  0  0  0  0  0  0  0  0  0
   14.2208    1.5893   -5.7567 C   0  0  0  0  0  0  0  0  0  0  0  0
   13.0423    1.2863   -5.8730 O   0  0  0  0  0  0  0  0  0  0  0  0
   14.6747    2.8435   -4.9971 C   0  0  2  0  0  0  0  0  0  0  0  0
   13.7010    3.2689   -3.8729 C   0  0  0  0  0  0  0  0  0  0  0  0
   14.1515    4.5506   -3.1669 C   0  0  0  0  0  0  0  0  0  0  0  0
   13.5371    2.1692   -2.8197 C   0  0  0  0  0  0  0  0  0  0  0  0
   14.8328    3.9121   -6.0385 C   0  0  0  0  0  0  0  0  0  0  0  0
   15.8922    4.7582   -5.8926 O   0  0  0  0  0  0  0  0  0  0  0  0
   15.8909    5.6898   -6.9374 N   0  0  0  0  0  0  0  0  0  0  0  0
   14.8261    5.3833   -7.6890 C   0  0  0  0  0  0  0  0  0  0  0  0
   14.4877    6.1836   -8.8861 C   0  0  0  0  0  0  0  0  0  0  0  0
   14.1475    4.2541   -7.1823 C   0  0  0  0  0  0  0  0  0  0  0  0
   14.9426   -0.1103   -7.4375 C   0  0  0  0  0  0  0  0  0  0  0  0
   16.3157   -0.6060   -7.8802 C   0  0  1  0  0  0  0  0  0  0  0  0
   16.4309   -0.9102   -9.2696 O   0  0  0  0  0  0  0  0  0  0  0  0
   17.1976    0.5778   -7.5372 C   0  0  0  0  0  0  0  0  0  0  0  0
   16.6802   -3.0569   -3.9185 C   0  0  0  0  0  0  0  0  0  0  0  0
   15.8475   -4.0680   -3.4348 C   0  0  0  0  0  0  0  0  0  0  0  0
   15.9694   -5.3706   -3.8826 C   0  0  0  0  0  0  0  0  0  0  0  0
   16.9042   -5.7102   -4.8497 C   0  0  0  0  0  0  0  0  0  0  0  0
   17.0257   -7.0569   -5.3316 C   0  0  0  0  0  0  0  0  0  0  0  0
   17.1079   -8.1481   -5.7219 N   0  0  0  0  0  0  0  0  0  0  0  0
   17.7219   -4.7165   -5.3573 C   0  0  0  0  0  0  0  0  0  0  0  0
   17.6090   -3.4177   -4.8937 C   0  0  0  0  0  0  0  0  0  0  0  0
   13.8427   -0.9346   -0.0676 C   0  0  0  0  0  0  0  0  0  0  0  0
   13.6046   -0.0709    1.1616 C   0  0  0  0  0  0  0  0  0  0  0  0
   12.8149   -1.6032    2.4586 H   0  0  0  0  0  0  0  0  0  0  0  0
   13.5335   -0.2426    3.3093 H   0  0  0  0  0  0  0  0  0  0  0  0
   15.7878   -0.9347    2.6432 H   0  0  0  0  0  0  0  0  0  0  0  0
   14.9711   -2.2819    3.4299 H   0  0  0  0  0  0  0  0  0  0  0  0
   16.1890   -2.9741    1.3564 H   0  0  0  0  0  0  0  0  0  0  0  0
   14.4722   -3.3211    1.2646 H   0  0  0  0  0  0  0  0  0  0  0  0
   14.6476   -1.5663   -2.5872 H   0  0  0  0  0  0  0  0  0  0  0  0
   15.6810   -0.2105   -2.1196 H   0  0  0  0  0  0  0  0  0  0  0  0
   17.6659   -1.3868   -3.0557 H   0  0  0  0  0  0  0  0  0  0  0  0
   15.4037   -0.7441   -4.8910 H   0  0  0  0  0  0  0  0  0  0  0  0
   16.9416    2.0667   -6.0161 H   0  0  0  0  0  0  0  0  0  0  0  0
   15.6393    2.6443   -4.5214 H   0  0  0  0  0  0  0  0  0  0  0  0
   12.7246    3.4769   -4.3084 H   0  0  0  0  0  0  0  0  0  0  0  0
   13.4851    4.7930   -2.3331 H   0  0  0  0  0  0  0  0  0  0  0  0
   14.1375    5.4101   -3.8430 H   0  0  0  0  0  0  0  0  0  0  0  0
   15.1646    4.4515   -2.7647 H   0  0  0  0  0  0  0  0  0  0  0  0
   12.8220    2.4702   -2.0474 H   0  0  0  0  0  0  0  0  0  0  0  0
   14.4877    1.9539   -2.3228 H   0  0  0  0  0  0  0  0  0  0  0  0
   13.1683    1.2354   -3.2514 H   0  0  0  0  0  0  0  0  0  0  0  0
   14.8786    5.7017   -9.7862 H   0  0  0  0  0  0  0  0  0  0  0  0
   14.9085    7.1921   -8.8274 H   0  0  0  0  0  0  0  0  0  0  0  0
   13.4033    6.2816   -8.9964 H   0  0  0  0  0  0  0  0  0  0  0  0
   13.2695    3.7721   -7.5894 H   0  0  0  0  0  0  0  0  0  0  0  0
   14.3042   -0.9165   -7.0612 H   0  0  0  0  0  0  0  0  0  0  0  0
   14.4013    0.3999   -8.2419 H   0  0  0  0  0  0  0  0  0  0  0  0
   16.5973   -1.4950   -7.3073 H   0  0  0  0  0  0  0  0  0  0  0  0
   17.3937   -0.9707   -9.4282 H   0  0  0  0  0  0  0  0  0  0  0  0
   17.0440    1.3660   -8.2781 H   0  0  0  0  0  0  0  0  0  0  0  0
   18.2616    0.3541   -7.5113 H   0  0  0  0  0  0  0  0  0  0  0  0
   15.0940   -3.8701   -2.6807 H   0  0  0  0  0  0  0  0  0  0  0  0
   15.3178   -6.1200   -3.4514 H   0  0  0  0  0  0  0  0  0  0  0  0
   18.4728   -4.9440   -6.1090 H   0  0  0  0  0  0  0  0  0  0  0  0
   18.2791   -2.6713   -5.3040 H   0  0  0  0  0  0  0  0  0  0  0  0
   13.8826   -0.2882   -0.9445 H   0  0  0  0  0  0  0  0  0  0  0  0
   13.0016   -1.6142   -0.2263 H   0  0  0  0  0  0  0  0  0  0  0  0
   12.6412    0.4395    1.0762 H   0  0  0  0  0  0  0  0  0  0  0  0
   14.3710    0.7102    1.2101 H   0  0  0  0  0  0  0  0  0  0  0  0
  1 40  1  0  0  0  0
  1 41  1  0  0  0  0
  1  2  1  0  0  0  0
  1 39  1  0  0  0  0
  2 42  1  0  0  0  0
  2 43  1  0  0  0  0
  2  3  1  0  0  0  0
  3 44  1  0  0  0  0
  3 45  1  0  0  0  0
  3  4  1  0  0  0  0
  4 38  1  0  0  0  0
  4  5  1  0  0  0  0
  5  6  2  0  0  0  0
  5  7  1  0  0  0  0
  7 46  1  0  0  0  0
  7 47  1  0  0  0  0
  8  7  1  0  0  0  0
  8 48  1  0  0  0  0
  8 30  1  0  0  0  0
  8  9  1  0  0  0  0
  9 49  1  0  0  0  0
  9 10  1  0  0  0  0
 10 11  2  0  0  0  0
 12 10  1  0  0  0  0
 12 50  1  0  0  0  0
 12 29  1  0  0  0  0
 12 13  1  0  0  0  0
 13 26  1  0  0  0  0
 13 14  1  0  0  0  0
 14 15  2  0  0  0  0
 16 14  1  0  0  0  0
 16 51  1  0  0  0  0
 16 17  1  0  0  0  0
 16 20  1  0  0  0  0
 17 52  1  0  0  0  0
 17 19  1  0  0  0  0
 17 18  1  0  0  0  0
 18 53  1  0  0  0  0
 18 54  1  0  0  0  0
 18 55  1  0  0  0  0
 19 56  1  0  0  0  0
 19 57  1  0  0  0  0
 19 58  1  0  0  0  0
 20 25  2  0  0  0  0
 20 21  1  0  0  0  0
 21 22  1  0  0  0  0
 22 23  2  0  0  0  0
 23 25  1  0  0  0  0
 23 24  1  0  0  0  0
 24 59  1  0  0  0  0
 24 60  1  0  0  0  0
 24 61  1  0  0  0  0
 25 62  1  0  0  0  0
 27 26  1  0  0  0  0
 26 63  1  0  0  0  0
 26 64  1  0  0  0  0
 27 29  1  0  0  0  0
 27 65  1  0  0  0  0
 27 28  1  0  0  0  0
 28 66  1  0  0  0  0
 29 67  1  0  0  0  0
 29 68  1  0  0  0  0
 30 31  1  0  0  0  0
 30 37  2  0  0  0  0
 31 69  1  0  0  0  0
 31 32  2  0  0  0  0
 32 70  1  0  0  0  0
 32 33  1  0  0  0  0
 33 34  1  0  0  0  0
 33 36  2  0  0  0  0
 34 35  3  0  0  0  0
 36 71  1  0  0  0  0
 36 37  1  0  0  0  0
 37 72  1  0  0  0  0
 38 73  1  0  0  0  0
 38 74  1  0  0  0  0
 38 39  1  0  0  0  0
 39 75  1  0  0  0  0
 39 76  1  0  0  0  0
M  ZZC   1 c1
M  ZZC   2 c2
M  ZZC   3 c3
M  ZZC   4 n1
M  ZZC   5 c4
M  ZZC   6 o1
M  ZZC   7 c5
M  ZZC   8 c6
M  ZZC   9 n2
M  ZZC  10 c7
M  ZZC  11 o2
M  ZZC  12 c8
M  ZZC  13 n3
M  ZZC  14 c9
M  ZZC  15 o3
M  ZZC  16 c10
M  ZZC  17 c11
M  ZZC  18 c12
M  ZZC  19 c13
M  ZZC  20 c14
M  ZZC  21 o4
M  ZZC  22 n4
M  ZZC  23 c15
M  ZZC  24 c16
M  ZZC  25 c17
M  ZZC  26 c18
M  ZZC  27 c19
M  ZZC  28 o5
M  ZZC  29 c20
M  ZZC  30 c21
M  ZZC  31 c22
M  ZZC  32 c23
M  ZZC  33 c24
M  ZZC  34 c25
M  ZZC  35 n5
M  ZZC  36 c26
M  ZZC  37 c27
M  ZZC  38 c28
M  ZZC  39 c29
M  ZZC  40 h11
M  ZZC  41 h12
M  ZZC  42 h21
M  ZZC  43 h22
M  ZZC  44 h31
M  ZZC  45 h32
M  ZZC  46 h51
M  ZZC  47 h52
M  ZZC  48 h61
M  ZZC  49 h01
M  ZZC  50 h81
M  ZZC  51 h101
M  ZZC  52 h111
M  ZZC  53 h121
M  ZZC  54 h122
M  ZZC  55 h123
M  ZZC  56 h131
M  ZZC  57 h132
M  ZZC  58 h133
M  ZZC  59 h161
M  ZZC  60 h162
M  ZZC  61 h163
M  ZZC  62 h171
M  ZZC  63 h181
M  ZZC  64 h182
M  ZZC  65 h191
M  ZZC  66 h02
M  ZZC  67 h201
M  ZZC  68 h202
M  ZZC  69 h221
M  ZZC  70 h231
M  ZZC  71 h261
M  ZZC  72 h271
M  ZZC  73 h281
M  ZZC  74 h282
M  ZZC  75 h291
M  ZZC  76 h292
M  ZZM   1 1
M  ZZI   1 112
M  ZZM   2 1
M  ZZI   2 112
M  ZZM   3 1
M  ZZI   3 112
M  ZZM   4 10
M  ZZI   4 192
M  ZZM   5 3
M  ZZI   5 121
M  ZZM   6 7
M  ZZI   6 81
M  ZZM   7 1
M  ZZI   7 112
M  ZZM   8 1
M  ZZI   8 113
M  ZZM   9 10
M  ZZI   9 211
M  ZZM  10 3
M  ZZI  10 121
M  ZZM  11 7
M  ZZI  11 81
M  ZZM  12 1
M  ZZI  12 113
M  ZZM  13 10
M  ZZI  13 192
M  ZZM  14 3
M  ZZI  14 121
M  ZZM  15 7
M  ZZI  15 81
M  ZZM  16 1
M  ZZI  16 113
M  ZZM  17 1
M  ZZI  17 113
M  ZZM  18 1
M  ZZI  18 111
M  ZZM  19 1
M  ZZI  19 111
M  ZZM  20 63
M  ZZI  20 104
M  ZZM  21 59
M  ZZI  21 56
M  ZZM  22 65
M  ZZI  22 207
M  ZZM  23 64
M  ZZI  23 105
M  ZZM  24 1
M  ZZI  24 111
M  ZZM  25 64
M  ZZI  25 105
M  ZZM  26 1
M  ZZI  26 112
M  ZZM  27 1
M  ZZI  27 113
M  ZZM  28 6
M  ZZI  28 60
M  ZZM  29 1
M  ZZI  29 112
M  ZZM  30 37
M  ZZI  30 124
M  ZZM  31 37
M  ZZI  31 125
M  ZZM  32 37
M  ZZI  32 125
M  ZZM  33 37
M  ZZI  33 124
M  ZZM  34 4
M  ZZI  34 130
M  ZZM  35 42
M  ZZI  35 225
M  ZZM  36 37
M  ZZI  36 125
M  ZZM  37 37
M  ZZI  37 125
M  ZZM  38 1
M  ZZI  38 112
M  ZZM  39 1
M  ZZI  39 112
M  ZZM  40 5
M  ZZI  40 1
M  ZZM  41 5
M  ZZI  41 1
M  ZZM  42 5
M  ZZI  42 1
M  ZZM  43 5
M  ZZI  43 1
M  ZZM  44 5
M  ZZI  44 1
M  ZZM  45 5
M  ZZI  45 1
M  ZZM  46 5
M  ZZI  46 1
M  ZZM  47 5
M  ZZI  47 1
M  ZZM  48 5
M  ZZI  48 1
M  ZZM  49 28
M  ZZI  49 11
M  ZZM  50 5
M  ZZI  50 1
M  ZZM  51 5
M  ZZI  51 1
M  ZZM  52 5
M  ZZI  52 1
M  ZZM  53 5
M  ZZI  53 1
M  ZZM  54 5
M  ZZI  54 1
M  ZZM  55 5
M  ZZI  55 1
M  ZZM  56 5
M  ZZI  56 1
M  ZZM  57 5
M  ZZI  57 1
M  ZZM  58 5
M  ZZI  58 1
M  ZZM  59 5
M  ZZI  59 1
M  ZZM  60 5
M  ZZI  60 1
M  ZZM  61 5
M  ZZI  61 1
M  ZZM  62 5
M  ZZI  62 1
M  ZZM  63 5
M  ZZI  63 1
M  ZZM  64 5
M  ZZI  64 1
M  ZZM  65 5
M  ZZI  65 1
M  ZZM  66 21
M  ZZI  66 20
M  ZZM  67 5
M  ZZI  67 1
M  ZZM  68 5
M  ZZI  68 1
M  ZZM  69 5
M  ZZI  69 1
M  ZZM  70 5
M  ZZI  70 1
M  ZZM  71 5
M  ZZI  71 1
M  ZZM  72 5
M  ZZI  72 1
M  ZZM  73 5
M  ZZI  73 1
M  ZZM  74 5
M  ZZI  74 1
M  ZZM  75 5
M  ZZI  75 1
M  ZZM  76 5
M  ZZI  76 1
M  END
> <IX>
1

> <NAME>
VHL_5T8E_20.pdb

> <Score>
-10.677041

> <Natom>
76

> <Nflex>
11

> <Hbond>
-7.788537

> <Hphob>
-7.2599

> <VwInt>
-27.303069

> <Dsolv>
21.278543

> <SolEl>
19.747889

> <Eintl>
9.337742

> <RecConf>
ND

> <projPath>
VHL_maps/

> <NAME_>
VHL_5T8E_20.pdb

$$$$
