VHL_5G0J_13.pdb
  MOLSOFT 04032206413D

 65 67  0  0  1  0  0  0  0  0999 V2000
   18.0920   -6.7303   -5.1148 C   0  0  0  0  0  0  0  0  0  0  0  0
   16.8926   -5.8312   -4.9899 C   0  0  0  0  0  0  0  0  0  0  0  0
   15.8072   -6.1723   -5.4271 O   0  0  0  0  0  0  0  0  0  0  0  0
   17.1481   -4.6531   -4.3164 N   0  0  0  0  0  0  0  0  0  0  0  0
   16.1556   -3.5953   -4.0652 C   0  0  1  0  0  0  0  0  0  0  0  0
   15.8560   -3.4302   -2.5462 C   0  0  0  0  0  0  0  0  0  0  0  0
   17.0909   -2.9800   -1.7524 C   0  0  0  0  0  0  0  0  0  0  0  0
   14.7394   -2.4136   -2.2803 C   0  0  0  0  0  0  0  0  0  0  0  0
   15.3693   -4.7794   -2.0014 C   0  0  0  0  0  0  0  0  0  0  0  0
   16.7196   -2.3547   -4.7882 C   0  0  0  0  0  0  0  0  0  0  0  0
   17.9229   -2.1242   -4.7851 O   0  0  0  0  0  0  0  0  0  0  0  0
   15.8301   -1.5289   -5.4816 N   0  0  0  0  0  0  0  0  0  0  0  0
   16.3238   -0.5853   -6.4728 C   0  0  2  0  0  0  0  0  0  0  0  0
   16.7237    0.7643   -5.8696 C   0  0  0  0  0  0  0  0  0  0  0  0
   16.1927    1.2321   -4.8714 O   0  0  0  0  0  0  0  0  0  0  0  0
   17.6858    1.4251   -6.6122 N   0  0  0  0  0  0  0  0  0  0  0  0
   18.1465    2.7605   -6.2681 C   0  0  0  0  0  0  0  0  0  0  0  0
   19.6008    3.0469   -6.5711 C   0  0  0  0  0  0  0  0  0  0  0  0
   20.1356    4.2826   -6.2144 C   0  0  0  0  0  0  0  0  0  0  0  0
   21.4704    4.5876   -6.4350 C   0  0  0  0  0  0  0  0  0  0  0  0
   22.3195    3.6647   -7.0347 C   0  0  0  0  0  0  0  0  0  0  0  0
   23.7420    3.9284   -7.2255 C   0  0  0  0  0  0  0  0  0  0  0  0
   24.5381    3.8722   -8.3642 C   0  0  0  0  0  0  0  0  0  0  0  0
   24.1070    3.5892   -9.7513 C   0  0  0  0  0  0  0  0  0  0  0  0
   25.8816    4.1038   -8.1519 N   0  0  0  0  0  0  0  0  0  0  0  0
   26.0950    4.3510   -6.8800 C   0  0  0  0  0  0  0  0  0  0  0  0
   24.7213    4.3309   -5.8672 S   0  0  0  0  0  0  0  0  0  0  0  0
   21.7797    2.4462   -7.4180 C   0  0  0  0  0  0  0  0  0  0  0  0
   20.4542    2.1355   -7.1851 C   0  0  0  0  0  0  0  0  0  0  0  0
   15.1594   -0.4313   -7.4372 C   0  0  0  0  0  0  0  0  0  0  0  0
   13.9366   -0.5603   -6.5442 C   0  0  1  0  0  0  0  0  0  0  0  0
   12.8398   -1.0996   -7.2774 O   0  0  0  0  0  0  0  0  0  0  0  0
   14.3778   -1.5160   -5.4440 C   0  0  0  0  0  0  0  0  0  0  0  0
   19.0117   -6.1475   -5.2235 H   0  0  0  0  0  0  0  0  0  0  0  0
   17.9802   -7.3652   -5.9988 H   0  0  0  0  0  0  0  0  0  0  0  0
   18.1569   -7.3620   -4.2258 H   0  0  0  0  0  0  0  0  0  0  0  0
   18.1084   -4.4642   -4.0510 H   0  0  0  0  0  0  0  0  0  0  0  0
   15.2332   -3.9016   -4.5567 H   0  0  0  0  0  0  0  0  0  0  0  0
   16.8753   -2.9177   -0.6809 H   0  0  0  0  0  0  0  0  0  0  0  0
   17.4414   -1.9931   -2.0697 H   0  0  0  0  0  0  0  0  0  0  0  0
   17.9211   -3.6748   -1.8685 H   0  0  0  0  0  0  0  0  0  0  0  0
   15.0407   -1.4003   -2.5597 H   0  0  0  0  0  0  0  0  0  0  0  0
   14.4777   -2.3771   -1.2176 H   0  0  0  0  0  0  0  0  0  0  0  0
   13.8251   -2.6736   -2.8226 H   0  0  0  0  0  0  0  0  0  0  0  0
   15.0869   -4.6991   -0.9492 H   0  0  0  0  0  0  0  0  0  0  0  0
   16.1379   -5.5509   -2.0784 H   0  0  0  0  0  0  0  0  0  0  0  0
   14.4923   -5.1408   -2.5479 H   0  0  0  0  0  0  0  0  0  0  0  0
   17.1941   -1.0106   -6.9801 H   0  0  0  0  0  0  0  0  0  0  0  0
   18.0416    0.9794   -7.4514 H   0  0  0  0  0  0  0  0  0  0  0  0
   17.5183    3.4566   -6.8343 H   0  0  0  0  0  0  0  0  0  0  0  0
   17.9614    2.9310   -5.2021 H   0  0  0  0  0  0  0  0  0  0  0  0
   19.5054    5.0270   -5.7362 H   0  0  0  0  0  0  0  0  0  0  0  0
   21.8436    5.5594   -6.1255 H   0  0  0  0  0  0  0  0  0  0  0  0
   24.0324    2.5120   -9.9163 H   0  0  0  0  0  0  0  0  0  0  0  0
   24.8255    3.9879  -10.4730 H   0  0  0  0  0  0  0  0  0  0  0  0
   23.1372    4.0460   -9.9652 H   0  0  0  0  0  0  0  0  0  0  0  0
   27.0818    4.5565   -6.4901 H   0  0  0  0  0  0  0  0  0  0  0  0
   22.4030    1.6955   -7.8866 H   0  0  0  0  0  0  0  0  0  0  0  0
   20.1127    1.1502   -7.4765 H   0  0  0  0  0  0  0  0  0  0  0  0
   15.1658    0.5148   -7.9888 H   0  0  0  0  0  0  0  0  0  0  0  0
   15.1709   -1.2367   -8.1810 H   0  0  0  0  0  0  0  0  0  0  0  0
   13.6503    0.4167   -6.1372 H   0  0  0  0  0  0  0  0  0  0  0  0
   12.0185   -0.8456   -6.8203 H   0  0  0  0  0  0  0  0  0  0  0  0
   13.9732   -2.5227   -5.5510 H   0  0  0  0  0  0  0  0  0  0  0  0
   14.0490   -1.1265   -4.4803 H   0  0  0  0  0  0  0  0  0  0  0  0
  1 34  1  0  0  0  0
  1 35  1  0  0  0  0
  1 36  1  0  0  0  0
  1  2  1  0  0  0  0
  2  3  2  0  0  0  0
  2  4  1  0  0  0  0
  4 37  1  0  0  0  0
  5  4  1  0  0  0  0
  5 38  1  0  0  0  0
  5  6  1  0  0  0  0
  5 10  1  0  0  0  0
  6  7  1  0  0  0  0
  6  8  1  0  0  0  0
  6  9  1  0  0  0  0
  7 39  1  0  0  0  0
  7 40  1  0  0  0  0
  7 41  1  0  0  0  0
  8 42  1  0  0  0  0
  8 43  1  0  0  0  0
  8 44  1  0  0  0  0
  9 45  1  0  0  0  0
  9 46  1  0  0  0  0
  9 47  1  0  0  0  0
 10 11  2  0  0  0  0
 10 12  1  0  0  0  0
 12 33  1  0  0  0  0
 13 12  1  0  0  0  0
 13 30  1  0  0  0  0
 13 48  1  0  0  0  0
 13 14  1  0  0  0  0
 14 15  2  0  0  0  0
 14 16  1  0  0  0  0
 16 49  1  0  0  0  0
 16 17  1  0  0  0  0
 17 50  1  0  0  0  0
 17 51  1  0  0  0  0
 17 18  1  0  0  0  0
 18 19  1  0  0  0  0
 18 29  2  0  0  0  0
 19 52  1  0  0  0  0
 19 20  2  0  0  0  0
 20 53  1  0  0  0  0
 20 21  1  0  0  0  0
 21 28  2  0  0  0  0
 21 22  1  0  0  0  0
 22 23  2  0  0  0  0
 22 27  1  0  0  0  0
 23 24  1  0  0  0  0
 23 25  1  0  0  0  0
 24 54  1  0  0  0  0
 24 55  1  0  0  0  0
 24 56  1  0  0  0  0
 25 26  2  0  0  0  0
 26 57  1  0  0  0  0
 26 27  1  0  0  0  0
 28 58  1  0  0  0  0
 28 29  1  0  0  0  0
 29 59  1  0  0  0  0
 31 30  1  0  0  0  0
 30 60  1  0  0  0  0
 30 61  1  0  0  0  0
 31 33  1  0  0  0  0
 31 62  1  0  0  0  0
 31 32  1  0  0  0  0
 32 63  1  0  0  0  0
 33 64  1  0  0  0  0
 33 65  1  0  0  0  0
M  ZZC   1 c1
M  ZZC   2 c2
M  ZZC   3 o1
M  ZZC   4 n1
M  ZZC   5 c3
M  ZZC   6 c4
M  ZZC   7 c5
M  ZZC   8 c6
M  ZZC   9 c7
M  ZZC  10 c8
M  ZZC  11 o2
M  ZZC  12 n2
M  ZZC  13 c9
M  ZZC  14 c10
M  ZZC  15 o3
M  ZZC  16 n3
M  ZZC  17 c11
M  ZZC  18 c12
M  ZZC  19 c13
M  ZZC  20 c14
M  ZZC  21 c15
M  ZZC  22 c16
M  ZZC  23 c17
M  ZZC  24 c18
M  ZZC  25 n4
M  ZZC  26 c19
M  ZZC  27 s1
M  ZZC  28 c20
M  ZZC  29 c21
M  ZZC  30 c22
M  ZZC  31 c23
M  ZZC  32 o4
M  ZZC  33 c24
M  ZZC  34 h11
M  ZZC  35 h12
M  ZZC  36 h13
M  ZZC  37 h01
M  ZZC  38 h31
M  ZZC  39 h51
M  ZZC  40 h52
M  ZZC  41 h53
M  ZZC  42 h61
M  ZZC  43 h62
M  ZZC  44 h63
M  ZZC  45 h71
M  ZZC  46 h72
M  ZZC  47 h73
M  ZZC  48 h91
M  ZZC  49 h02
M  ZZC  50 h111
M  ZZC  51 h112
M  ZZC  52 h131
M  ZZC  53 h141
M  ZZC  54 h181
M  ZZC  55 h182
M  ZZC  56 h183
M  ZZC  57 h191
M  ZZC  58 h201
M  ZZC  59 h211
M  ZZC  60 h221
M  ZZC  61 h222
M  ZZC  62 h231
M  ZZC  63 h41
M  ZZC  64 h241
M  ZZC  65 h242
M  ZZM   1 1
M  ZZI   1 111
M  ZZM   2 3
M  ZZI   2 121
M  ZZM   3 7
M  ZZI   3 81
M  ZZM   4 10
M  ZZI   4 211
M  ZZM   5 1
M  ZZI   5 113
M  ZZM   6 1
M  ZZI   6 110
M  ZZM   7 1
M  ZZI   7 111
M  ZZM   8 1
M  ZZI   8 111
M  ZZM   9 1
M  ZZI   9 111
M  ZZM  10 3
M  ZZI  10 121
M  ZZM  11 7
M  ZZI  11 81
M  ZZM  12 10
M  ZZI  12 192
M  ZZM  13 1
M  ZZI  13 113
M  ZZM  14 3
M  ZZI  14 121
M  ZZM  15 7
M  ZZI  15 81
M  ZZM  16 10
M  ZZI  16 211
M  ZZM  17 1
M  ZZI  17 112
M  ZZM  18 37
M  ZZI  18 124
M  ZZM  19 37
M  ZZI  19 125
M  ZZM  20 37
M  ZZI  20 125
M  ZZM  21 37
M  ZZI  21 124
M  ZZM  22 63
M  ZZI  22 104
M  ZZM  23 64
M  ZZI  23 105
M  ZZM  24 1
M  ZZI  24 111
M  ZZM  25 66
M  ZZI  25 222
M  ZZM  26 63
M  ZZI  26 104
M  ZZM  27 44
M  ZZI  27 248
M  ZZM  28 37
M  ZZI  28 125
M  ZZM  29 37
M  ZZI  29 125
M  ZZM  30 1
M  ZZI  30 112
M  ZZM  31 1
M  ZZI  31 113
M  ZZM  32 6
M  ZZI  32 60
M  ZZM  33 1
M  ZZI  33 112
M  ZZM  34 5
M  ZZI  34 1
M  ZZM  35 5
M  ZZI  35 1
M  ZZM  36 5
M  ZZI  36 1
M  ZZM  37 28
M  ZZI  37 11
M  ZZM  38 5
M  ZZI  38 1
M  ZZM  39 5
M  ZZI  39 1
M  ZZM  40 5
M  ZZI  40 1
M  ZZM  41 5
M  ZZI  41 1
M  ZZM  42 5
M  ZZI  42 1
M  ZZM  43 5
M  ZZI  43 1
M  ZZM  44 5
M  ZZI  44 1
M  ZZM  45 5
M  ZZI  45 1
M  ZZM  46 5
M  ZZI  46 1
M  ZZM  47 5
M  ZZI  47 1
M  ZZM  48 5
M  ZZI  48 1
M  ZZM  49 28
M  ZZI  49 11
M  ZZM  50 5
M  ZZI  50 1
M  ZZM  51 5
M  ZZI  51 1
M  ZZM  52 5
M  ZZI  52 1
M  ZZM  53 5
M  ZZI  53 1
M  ZZM  54 5
M  ZZI  54 1
M  ZZM  55 5
M  ZZI  55 1
M  ZZM  56 5
M  ZZI  56 1
M  ZZM  57 5
M  ZZI  57 1
M  ZZM  58 5
M  ZZI  58 1
M  ZZM  59 5
M  ZZI  59 1
M  ZZM  60 5
M  ZZI  60 1
M  ZZM  61 5
M  ZZI  61 1
M  ZZM  62 5
M  ZZI  62 1
M  ZZM  63 21
M  ZZI  63 20
M  ZZM  64 5
M  ZZI  64 1
M  ZZM  65 5
M  ZZI  65 1
M  END
> <IX>
1

> <NAME>
VHL_5G0J_13.pdb

> <Score>
-12.686149

> <Natom>
65

> <Nflex>
8

> <Hbond>
-5.065059

> <Hphob>
-6.491516

> <VwInt>
-28.599103

> <Dsolv>
16.830745

> <SolEl>
15.668613

> <Eintl>
8.854208

> <RecConf>
ND

> <projPath>
VHL_maps/

> <NAME_>
VHL_5G0J_13.pdb

$$$$
