VHL_5EHR_16.pdb
  MOLSOFT 04032206403D

 68 70  0  0  1  0  0  0  0  0999 V2000
   18.6334    2.0807   -4.2844 C   0  0  0  0  0  0  0  0  0  0  0  0
   18.0383    0.8408   -4.8996 C   0  0  0  0  0  0  0  0  0  0  0  0
   18.7464   -0.0624   -5.3174 O   0  0  0  0  0  0  0  0  0  0  0  0
   16.6590    0.8425   -4.9274 N   0  0  0  0  0  0  0  0  0  0  0  0
   15.8786   -0.2684   -5.4771 C   0  0  2  0  0  0  0  0  0  0  0  0
   14.9209    0.1921   -6.6140 C   0  0  0  0  0  0  0  0  0  0  0  0
   15.7594    0.5857   -7.8406 C   0  0  0  0  0  0  0  0  0  0  0  0
   14.0030   -0.9662   -7.0184 C   0  0  0  0  0  0  0  0  0  0  0  0
   14.0372    1.3958   -6.2343 C   0  0  0  0  0  0  0  0  0  0  0  0
   15.1526   -0.9137   -4.2828 C   0  0  0  0  0  0  0  0  0  0  0  0
   14.2870   -0.3099   -3.6617 O   0  0  0  0  0  0  0  0  0  0  0  0
   15.5662   -2.1876   -3.8916 N   0  0  0  0  0  0  0  0  0  0  0  0
   14.9345   -2.8713   -2.7702 C   0  0  2  0  0  0  0  0  0  0  0  0
   15.4210   -2.2404   -1.4596 C   0  0  0  0  0  0  0  0  0  0  0  0
   16.6063   -2.0544   -1.2173 O   0  0  0  0  0  0  0  0  0  0  0  0
   14.3998   -1.8920   -0.5931 N   0  0  0  0  0  0  0  0  0  0  0  0
   14.6406   -1.1875    0.6587 C   0  0  1  0  0  0  0  0  0  0  0  0
   13.6502   -0.0290    0.7731 C   0  0  0  0  0  0  0  0  0  0  0  0
   14.6495   -2.1493    1.8364 C   0  0  0  0  0  0  0  0  0  0  0  0
   15.7052   -3.0472    1.9724 C   0  0  0  0  0  0  0  0  0  0  0  0
   15.7583   -3.9534    3.0155 C   0  0  0  0  0  0  0  0  0  0  0  0
   14.7530   -4.0026    3.9762 C   0  0  0  0  0  0  0  0  0  0  0  0
   14.7808   -4.9962    5.0496 C   0  0  0  0  0  0  0  0  0  0  0  0
   13.7759   -5.8031    5.5765 C   0  0  0  0  0  0  0  0  0  0  0  0
   12.3553   -5.8716    5.1595 C   0  0  0  0  0  0  0  0  0  0  0  0
   14.1713   -6.6421    6.5992 N   0  0  0  0  0  0  0  0  0  0  0  0
   15.4509   -6.4769    6.8413 C   0  0  0  0  0  0  0  0  0  0  0  0
   16.2548   -5.3192    5.8823 S   0  0  0  0  0  0  0  0  0  0  0  0
   13.7089   -3.0910    3.8617 C   0  0  0  0  0  0  0  0  0  0  0  0
   13.6528   -2.1876    2.8121 C   0  0  0  0  0  0  0  0  0  0  0  0
   15.4009   -4.3155   -2.8935 C   0  0  0  0  0  0  0  0  0  0  0  0
   16.7660   -4.1912   -3.5469 C   0  0  1  0  0  0  0  0  0  0  0  0
   17.1150   -5.3875   -4.2396 O   0  0  0  0  0  0  0  0  0  0  0  0
   16.6061   -3.0076   -4.4893 C   0  0  0  0  0  0  0  0  0  0  0  0
   17.8749    2.8483   -4.1062 H   0  0  0  0  0  0  0  0  0  0  0  0
   19.3878    2.4914   -4.9617 H   0  0  0  0  0  0  0  0  0  0  0  0
   19.1013    1.8184   -3.3311 H   0  0  0  0  0  0  0  0  0  0  0  0
   16.1580    1.5985   -4.4721 H   0  0  0  0  0  0  0  0  0  0  0  0
   16.5775   -0.9902   -5.9057 H   0  0  0  0  0  0  0  0  0  0  0  0
   16.4338    1.4194   -7.6230 H   0  0  0  0  0  0  0  0  0  0  0  0
   15.1221    0.8995   -8.6717 H   0  0  0  0  0  0  0  0  0  0  0  0
   16.3715   -0.2497   -8.1967 H   0  0  0  0  0  0  0  0  0  0  0  0
   13.3219   -0.6653   -7.8178 H   0  0  0  0  0  0  0  0  0  0  0  0
   13.3728   -1.3017   -6.1892 H   0  0  0  0  0  0  0  0  0  0  0  0
   14.5825   -1.8256   -7.3724 H   0  0  0  0  0  0  0  0  0  0  0  0
   13.3675    1.1722   -5.4002 H   0  0  0  0  0  0  0  0  0  0  0  0
   13.4004    1.6950   -7.0735 H   0  0  0  0  0  0  0  0  0  0  0  0
   14.6292    2.2746   -5.9628 H   0  0  0  0  0  0  0  0  0  0  0  0
   13.8445   -2.7881   -2.8504 H   0  0  0  0  0  0  0  0  0  0  0  0
   13.4412   -2.1191   -0.8307 H   0  0  0  0  0  0  0  0  0  0  0  0
   15.6377   -0.7359    0.6083 H   0  0  0  0  0  0  0  0  0  0  0  0
   13.8209    0.5360    1.6951 H   0  0  0  0  0  0  0  0  0  0  0  0
   12.6148   -0.3839    0.7869 H   0  0  0  0  0  0  0  0  0  0  0  0
   13.7575    0.6800   -0.0540 H   0  0  0  0  0  0  0  0  0  0  0  0
   16.5119   -3.0517    1.2454 H   0  0  0  0  0  0  0  0  0  0  0  0
   16.5953   -4.6447    3.0518 H   0  0  0  0  0  0  0  0  0  0  0  0
   11.7604   -5.1106    5.6730 H   0  0  0  0  0  0  0  0  0  0  0  0
   11.9118   -6.8428    5.3910 H   0  0  0  0  0  0  0  0  0  0  0  0
   12.2654   -5.6995    4.0836 H   0  0  0  0  0  0  0  0  0  0  0  0
   15.9722   -7.0378    7.6040 H   0  0  0  0  0  0  0  0  0  0  0  0
   12.9147   -3.0724    4.6012 H   0  0  0  0  0  0  0  0  0  0  0  0
   12.8061   -1.5100    2.7727 H   0  0  0  0  0  0  0  0  0  0  0  0
   15.4481   -4.8454   -1.9364 H   0  0  0  0  0  0  0  0  0  0  0  0
   14.7262   -4.8868   -3.5393 H   0  0  0  0  0  0  0  0  0  0  0  0
   17.5276   -3.9834   -2.7887 H   0  0  0  0  0  0  0  0  0  0  0  0
   18.0642   -5.3229   -4.4534 H   0  0  0  0  0  0  0  0  0  0  0  0
   16.2910   -3.3111   -5.4937 H   0  0  0  0  0  0  0  0  0  0  0  0
   17.5388   -2.4435   -4.5815 H   0  0  0  0  0  0  0  0  0  0  0  0
  1 35  1  0  0  0  0
  1 36  1  0  0  0  0
  1 37  1  0  0  0  0
  1  2  1  0  0  0  0
  2  3  2  0  0  0  0
  2  4  1  0  0  0  0
  4 38  1  0  0  0  0
  5  4  1  0  0  0  0
  5 39  1  0  0  0  0
  5  6  1  0  0  0  0
  5 10  1  0  0  0  0
  6  7  1  0  0  0  0
  6  8  1  0  0  0  0
  6  9  1  0  0  0  0
  7 40  1  0  0  0  0
  7 41  1  0  0  0  0
  7 42  1  0  0  0  0
  8 43  1  0  0  0  0
  8 44  1  0  0  0  0
  8 45  1  0  0  0  0
  9 46  1  0  0  0  0
  9 47  1  0  0  0  0
  9 48  1  0  0  0  0
 10 11  2  0  0  0  0
 10 12  1  0  0  0  0
 12 34  1  0  0  0  0
 13 12  1  0  0  0  0
 13 31  1  0  0  0  0
 13 49  1  0  0  0  0
 13 14  1  0  0  0  0
 14 15  2  0  0  0  0
 14 16  1  0  0  0  0
 16 50  1  0  0  0  0
 17 16  1  0  0  0  0
 17 51  1  0  0  0  0
 17 18  1  0  0  0  0
 17 19  1  0  0  0  0
 18 52  1  0  0  0  0
 18 53  1  0  0  0  0
 18 54  1  0  0  0  0
 19 20  1  0  0  0  0
 19 30  2  0  0  0  0
 20 55  1  0  0  0  0
 20 21  2  0  0  0  0
 21 56  1  0  0  0  0
 21 22  1  0  0  0  0
 22 29  2  0  0  0  0
 22 23  1  0  0  0  0
 23 24  2  0  0  0  0
 23 28  1  0  0  0  0
 24 25  1  0  0  0  0
 24 26  1  0  0  0  0
 25 57  1  0  0  0  0
 25 58  1  0  0  0  0
 25 59  1  0  0  0  0
 26 27  2  0  0  0  0
 27 60  1  0  0  0  0
 27 28  1  0  0  0  0
 29 61  1  0  0  0  0
 29 30  1  0  0  0  0
 30 62  1  0  0  0  0
 32 31  1  0  0  0  0
 31 63  1  0  0  0  0
 31 64  1  0  0  0  0
 32 34  1  0  0  0  0
 32 65  1  0  0  0  0
 32 33  1  0  0  0  0
 33 66  1  0  0  0  0
 34 67  1  0  0  0  0
 34 68  1  0  0  0  0
M  ZZC   1 c1
M  ZZC   2 c2
M  ZZC   3 o1
M  ZZC   4 n1
M  ZZC   5 c3
M  ZZC   6 c4
M  ZZC   7 c5
M  ZZC   8 c6
M  ZZC   9 c7
M  ZZC  10 c8
M  ZZC  11 o2
M  ZZC  12 n2
M  ZZC  13 c9
M  ZZC  14 c10
M  ZZC  15 o3
M  ZZC  16 n3
M  ZZC  17 c11
M  ZZC  18 c12
M  ZZC  19 c13
M  ZZC  20 c14
M  ZZC  21 c15
M  ZZC  22 c16
M  ZZC  23 c17
M  ZZC  24 c18
M  ZZC  25 c19
M  ZZC  26 n4
M  ZZC  27 c20
M  ZZC  28 s1
M  ZZC  29 c21
M  ZZC  30 c22
M  ZZC  31 c23
M  ZZC  32 c24
M  ZZC  33 o4
M  ZZC  34 c25
M  ZZC  35 h11
M  ZZC  36 h12
M  ZZC  37 h13
M  ZZC  38 h01
M  ZZC  39 h31
M  ZZC  40 h51
M  ZZC  41 h52
M  ZZC  42 h53
M  ZZC  43 h61
M  ZZC  44 h62
M  ZZC  45 h63
M  ZZC  46 h71
M  ZZC  47 h72
M  ZZC  48 h73
M  ZZC  49 h91
M  ZZC  50 h02
M  ZZC  51 h111
M  ZZC  52 h121
M  ZZC  53 h122
M  ZZC  54 h123
M  ZZC  55 h141
M  ZZC  56 h151
M  ZZC  57 h191
M  ZZC  58 h192
M  ZZC  59 h193
M  ZZC  60 h201
M  ZZC  61 h211
M  ZZC  62 h221
M  ZZC  63 h231
M  ZZC  64 h232
M  ZZC  65 h241
M  ZZC  66 h41
M  ZZC  67 h251
M  ZZC  68 h252
M  ZZM   1 1
M  ZZI   1 111
M  ZZM   2 3
M  ZZI   2 121
M  ZZM   3 7
M  ZZI   3 81
M  ZZM   4 10
M  ZZI   4 211
M  ZZM   5 1
M  ZZI   5 113
M  ZZM   6 1
M  ZZI   6 110
M  ZZM   7 1
M  ZZI   7 111
M  ZZM   8 1
M  ZZI   8 111
M  ZZM   9 1
M  ZZI   9 111
M  ZZM  10 3
M  ZZI  10 121
M  ZZM  11 7
M  ZZI  11 81
M  ZZM  12 10
M  ZZI  12 192
M  ZZM  13 1
M  ZZI  13 113
M  ZZM  14 3
M  ZZI  14 121
M  ZZM  15 7
M  ZZI  15 81
M  ZZM  16 10
M  ZZI  16 211
M  ZZM  17 1
M  ZZI  17 113
M  ZZM  18 1
M  ZZI  18 111
M  ZZM  19 37
M  ZZI  19 124
M  ZZM  20 37
M  ZZI  20 125
M  ZZM  21 37
M  ZZI  21 125
M  ZZM  22 37
M  ZZI  22 124
M  ZZM  23 63
M  ZZI  23 104
M  ZZM  24 64
M  ZZI  24 105
M  ZZM  25 1
M  ZZI  25 111
M  ZZM  26 66
M  ZZI  26 222
M  ZZM  27 63
M  ZZI  27 104
M  ZZM  28 44
M  ZZI  28 248
M  ZZM  29 37
M  ZZI  29 125
M  ZZM  30 37
M  ZZI  30 125
M  ZZM  31 1
M  ZZI  31 112
M  ZZM  32 1
M  ZZI  32 113
M  ZZM  33 6
M  ZZI  33 60
M  ZZM  34 1
M  ZZI  34 112
M  ZZM  35 5
M  ZZI  35 1
M  ZZM  36 5
M  ZZI  36 1
M  ZZM  37 5
M  ZZI  37 1
M  ZZM  38 28
M  ZZI  38 11
M  ZZM  39 5
M  ZZI  39 1
M  ZZM  40 5
M  ZZI  40 1
M  ZZM  41 5
M  ZZI  41 1
M  ZZM  42 5
M  ZZI  42 1
M  ZZM  43 5
M  ZZI  43 1
M  ZZM  44 5
M  ZZI  44 1
M  ZZM  45 5
M  ZZI  45 1
M  ZZM  46 5
M  ZZI  46 1
M  ZZM  47 5
M  ZZI  47 1
M  ZZM  48 5
M  ZZI  48 1
M  ZZM  49 5
M  ZZI  49 1
M  ZZM  50 28
M  ZZI  50 11
M  ZZM  51 5
M  ZZI  51 1
M  ZZM  52 5
M  ZZI  52 1
M  ZZM  53 5
M  ZZI  53 1
M  ZZM  54 5
M  ZZI  54 1
M  ZZM  55 5
M  ZZI  55 1
M  ZZM  56 5
M  ZZI  56 1
M  ZZM  57 5
M  ZZI  57 1
M  ZZM  58 5
M  ZZI  58 1
M  ZZM  59 5
M  ZZI  59 1
M  ZZM  60 5
M  ZZI  60 1
M  ZZM  61 5
M  ZZI  61 1
M  ZZM  62 5
M  ZZI  62 1
M  ZZM  63 5
M  ZZI  63 1
M  ZZM  64 5
M  ZZI  64 1
M  ZZM  65 5
M  ZZI  65 1
M  ZZM  66 21
M  ZZI  66 20
M  ZZM  67 5
M  ZZI  67 1
M  ZZM  68 5
M  ZZI  68 1
M  END
> <IX>
1

> <NAME>
VHL_5EHR_16.pdb

> <Score>
-12.415382

> <Natom>
68

> <Nflex>
8

> <Hbond>
-3.961276

> <Hphob>
-6.475794

> <VwInt>
-29.344496

> <Dsolv>
17.088531

> <SolEl>
15.461324

> <Eintl>
5.781753

> <RecConf>
ND

> <projPath>
VHL_maps/

> <NAME_>
VHL_5EHR_16.pdb

$$$$
