VHL_3UE4_3.pdb
  MOLSOFT 04032206373D

 65 67  0  0  1  0  0  0  0  0999 V2000
   18.1284   -6.6945   -5.1424 C   0  0  0  0  0  0  0  0  0  0  0  0
   16.9152   -5.8180   -4.9898 C   0  0  0  0  0  0  0  0  0  0  0  0
   15.8293   -6.1747   -5.4132 O   0  0  0  0  0  0  0  0  0  0  0  0
   17.1610   -4.6391   -4.3139 N   0  0  0  0  0  0  0  0  0  0  0  0
   16.1554   -3.5981   -4.0454 C   0  0  1  0  0  0  0  0  0  0  0  0
   15.8832   -3.4344   -2.5208 C   0  0  0  0  0  0  0  0  0  0  0  0
   15.4061   -4.7854   -1.9735 C   0  0  0  0  0  0  0  0  0  0  0  0
   17.1319   -2.9843   -1.7494 C   0  0  0  0  0  0  0  0  0  0  0  0
   14.7708   -2.4222   -2.2242 C   0  0  0  0  0  0  0  0  0  0  0  0
   16.6777   -2.3498   -4.7874 C   0  0  0  0  0  0  0  0  0  0  0  0
   17.8760   -2.0956   -4.8183 O   0  0  0  0  0  0  0  0  0  0  0  0
   15.7493   -1.5500   -5.4601 N   0  0  0  0  0  0  0  0  0  0  0  0
   16.1787   -0.6145   -6.4891 C   0  0  2  0  0  0  0  0  0  0  0  0
   16.5823    0.7512   -5.9239 C   0  0  0  0  0  0  0  0  0  0  0  0
   16.0333    1.2555   -4.9535 O   0  0  0  0  0  0  0  0  0  0  0  0
   17.5677    1.3827   -6.6629 N   0  0  0  0  0  0  0  0  0  0  0  0
   18.0197    2.7297   -6.3490 C   0  0  0  0  0  0  0  0  0  0  0  0
   19.4775    3.0200   -6.6337 C   0  0  0  0  0  0  0  0  0  0  0  0
   19.9860    4.2823   -6.3368 C   0  0  0  0  0  0  0  0  0  0  0  0
   21.3232    4.5923   -6.5351 C   0  0  0  0  0  0  0  0  0  0  0  0
   22.2013    3.6470   -7.0515 C   0  0  0  0  0  0  0  0  0  0  0  0
   23.6251    3.9201   -7.2127 C   0  0  0  0  0  0  0  0  0  0  0  0
   24.4432    3.8804   -8.3360 C   0  0  0  0  0  0  0  0  0  0  0  0
   24.0388    3.6080   -9.7328 C   0  0  0  0  0  0  0  0  0  0  0  0
   25.7810    4.1198   -8.0955 N   0  0  0  0  0  0  0  0  0  0  0  0
   25.9669    4.3593   -6.8177 C   0  0  0  0  0  0  0  0  0  0  0  0
   24.5734    4.3190   -5.8324 S   0  0  0  0  0  0  0  0  0  0  0  0
   21.6895    2.4002   -7.3785 C   0  0  0  0  0  0  0  0  0  0  0  0
   20.3604    2.0864   -7.1666 C   0  0  0  0  0  0  0  0  0  0  0  0
   14.9613   -0.4940   -7.3940 C   0  0  0  0  0  0  0  0  0  0  0  0
   13.7840   -0.6393   -6.4401 C   0  0  1  0  0  0  0  0  0  0  0  0
   12.6528   -1.2332   -7.0726 O   0  0  0  0  0  0  0  0  0  0  0  0
   14.3009   -1.5606   -5.3488 C   0  0  0  0  0  0  0  0  0  0  0  0
   19.0391   -6.0958   -5.2394 H   0  0  0  0  0  0  0  0  0  0  0  0
   18.0224   -7.3098   -6.0408 H   0  0  0  0  0  0  0  0  0  0  0  0
   18.2075   -7.3464   -4.2691 H   0  0  0  0  0  0  0  0  0  0  0  0
   18.1211   -4.4372   -4.0579 H   0  0  0  0  0  0  0  0  0  0  0  0
   15.2297   -3.9255   -4.5173 H   0  0  0  0  0  0  0  0  0  0  0  0
   15.1357   -4.7078   -0.9182 H   0  0  0  0  0  0  0  0  0  0  0  0
   16.1746   -5.5553   -2.0640 H   0  0  0  0  0  0  0  0  0  0  0  0
   14.5228   -5.1471   -2.5097 H   0  0  0  0  0  0  0  0  0  0  0  0
   16.9355   -2.9211   -0.6742 H   0  0  0  0  0  0  0  0  0  0  0  0
   17.4772   -1.9981   -2.0748 H   0  0  0  0  0  0  0  0  0  0  0  0
   17.9589   -3.6795   -1.8791 H   0  0  0  0  0  0  0  0  0  0  0  0
   15.0600   -1.4108   -2.5288 H   0  0  0  0  0  0  0  0  0  0  0  0
   14.5473   -2.3764   -1.1540 H   0  0  0  0  0  0  0  0  0  0  0  0
   13.8537   -2.6583   -2.7708 H   0  0  0  0  0  0  0  0  0  0  0  0
   17.0284   -1.0360   -7.0348 H   0  0  0  0  0  0  0  0  0  0  0  0
   17.9508    0.9077   -7.4737 H   0  0  0  0  0  0  0  0  0  0  0  0
   17.3964    3.4072   -6.9426 H   0  0  0  0  0  0  0  0  0  0  0  0
   17.8173    2.9287   -5.2912 H   0  0  0  0  0  0  0  0  0  0  0  0
   19.3327    5.0443   -5.9213 H   0  0  0  0  0  0  0  0  0  0  0  0
   21.6769    5.5850   -6.2726 H   0  0  0  0  0  0  0  0  0  0  0  0
   23.9132    2.5352   -9.8924 H   0  0  0  0  0  0  0  0  0  0  0  0
   24.7971    3.9621  -10.4368 H   0  0  0  0  0  0  0  0  0  0  0  0
   23.1004    4.1131   -9.9764 H   0  0  0  0  0  0  0  0  0  0  0  0
   26.9441    4.5696   -6.4066 H   0  0  0  0  0  0  0  0  0  0  0  0
   22.3372    1.6326   -7.7827 H   0  0  0  0  0  0  0  0  0  0  0  0
   20.0379    1.0821   -7.4086 H   0  0  0  0  0  0  0  0  0  0  0  0
   14.9207    0.4457   -7.9548 H   0  0  0  0  0  0  0  0  0  0  0  0
   14.9549   -1.3085   -8.1270 H   0  0  0  0  0  0  0  0  0  0  0  0
   13.4853    0.3292   -6.0228 H   0  0  0  0  0  0  0  0  0  0  0  0
   12.3446   -0.6323   -7.7744 H   0  0  0  0  0  0  0  0  0  0  0  0
   13.9066   -2.5757   -5.4135 H   0  0  0  0  0  0  0  0  0  0  0  0
   14.0159   -1.1526   -4.3791 H   0  0  0  0  0  0  0  0  0  0  0  0
  1 34  1  0  0  0  0
  1 35  1  0  0  0  0
  1 36  1  0  0  0  0
  1  2  1  0  0  0  0
  2  3  2  0  0  0  0
  2  4  1  0  0  0  0
  4 37  1  0  0  0  0
  5  4  1  0  0  0  0
  5 38  1  0  0  0  0
  5  6  1  0  0  0  0
  5 10  1  0  0  0  0
  6  7  1  0  0  0  0
  6  8  1  0  0  0  0
  6  9  1  0  0  0  0
  7 39  1  0  0  0  0
  7 40  1  0  0  0  0
  7 41  1  0  0  0  0
  8 42  1  0  0  0  0
  8 43  1  0  0  0  0
  8 44  1  0  0  0  0
  9 45  1  0  0  0  0
  9 46  1  0  0  0  0
  9 47  1  0  0  0  0
 10 11  2  0  0  0  0
 10 12  1  0  0  0  0
 12 33  1  0  0  0  0
 13 12  1  0  0  0  0
 13 30  1  0  0  0  0
 13 48  1  0  0  0  0
 13 14  1  0  0  0  0
 14 15  2  0  0  0  0
 14 16  1  0  0  0  0
 16 49  1  0  0  0  0
 16 17  1  0  0  0  0
 17 50  1  0  0  0  0
 17 51  1  0  0  0  0
 17 18  1  0  0  0  0
 18 19  1  0  0  0  0
 18 29  2  0  0  0  0
 19 52  1  0  0  0  0
 19 20  2  0  0  0  0
 20 53  1  0  0  0  0
 20 21  1  0  0  0  0
 21 28  2  0  0  0  0
 21 22  1  0  0  0  0
 22 23  2  0  0  0  0
 22 27  1  0  0  0  0
 23 24  1  0  0  0  0
 23 25  1  0  0  0  0
 24 54  1  0  0  0  0
 24 55  1  0  0  0  0
 24 56  1  0  0  0  0
 25 26  2  0  0  0  0
 26 57  1  0  0  0  0
 26 27  1  0  0  0  0
 28 58  1  0  0  0  0
 28 29  1  0  0  0  0
 29 59  1  0  0  0  0
 31 30  1  0  0  0  0
 30 60  1  0  0  0  0
 30 61  1  0  0  0  0
 31 33  1  0  0  0  0
 31 62  1  0  0  0  0
 31 32  1  0  0  0  0
 32 63  1  0  0  0  0
 33 64  1  0  0  0  0
 33 65  1  0  0  0  0
M  ZZC   1 c1
M  ZZC   2 c2
M  ZZC   3 o1
M  ZZC   4 n1
M  ZZC   5 c3
M  ZZC   6 c4
M  ZZC   7 c5
M  ZZC   8 c6
M  ZZC   9 c7
M  ZZC  10 c8
M  ZZC  11 o2
M  ZZC  12 n2
M  ZZC  13 c9
M  ZZC  14 c10
M  ZZC  15 o3
M  ZZC  16 n3
M  ZZC  17 c11
M  ZZC  18 c12
M  ZZC  19 c13
M  ZZC  20 c14
M  ZZC  21 c15
M  ZZC  22 c16
M  ZZC  23 c17
M  ZZC  24 c18
M  ZZC  25 n4
M  ZZC  26 c19
M  ZZC  27 s1
M  ZZC  28 c20
M  ZZC  29 c21
M  ZZC  30 c22
M  ZZC  31 c23
M  ZZC  32 o4
M  ZZC  33 c24
M  ZZC  34 h11
M  ZZC  35 h12
M  ZZC  36 h13
M  ZZC  37 h01
M  ZZC  38 h31
M  ZZC  39 h51
M  ZZC  40 h52
M  ZZC  41 h53
M  ZZC  42 h61
M  ZZC  43 h62
M  ZZC  44 h63
M  ZZC  45 h71
M  ZZC  46 h72
M  ZZC  47 h73
M  ZZC  48 h91
M  ZZC  49 h02
M  ZZC  50 h111
M  ZZC  51 h112
M  ZZC  52 h131
M  ZZC  53 h141
M  ZZC  54 h181
M  ZZC  55 h182
M  ZZC  56 h183
M  ZZC  57 h191
M  ZZC  58 h201
M  ZZC  59 h211
M  ZZC  60 h221
M  ZZC  61 h222
M  ZZC  62 h231
M  ZZC  63 h41
M  ZZC  64 h241
M  ZZC  65 h242
M  ZZM   1 1
M  ZZI   1 111
M  ZZM   2 3
M  ZZI   2 121
M  ZZM   3 7
M  ZZI   3 81
M  ZZM   4 10
M  ZZI   4 211
M  ZZM   5 1
M  ZZI   5 113
M  ZZM   6 1
M  ZZI   6 110
M  ZZM   7 1
M  ZZI   7 111
M  ZZM   8 1
M  ZZI   8 111
M  ZZM   9 1
M  ZZI   9 111
M  ZZM  10 3
M  ZZI  10 121
M  ZZM  11 7
M  ZZI  11 81
M  ZZM  12 10
M  ZZI  12 192
M  ZZM  13 1
M  ZZI  13 113
M  ZZM  14 3
M  ZZI  14 121
M  ZZM  15 7
M  ZZI  15 81
M  ZZM  16 10
M  ZZI  16 211
M  ZZM  17 1
M  ZZI  17 112
M  ZZM  18 37
M  ZZI  18 124
M  ZZM  19 37
M  ZZI  19 125
M  ZZM  20 37
M  ZZI  20 125
M  ZZM  21 37
M  ZZI  21 124
M  ZZM  22 63
M  ZZI  22 104
M  ZZM  23 64
M  ZZI  23 105
M  ZZM  24 1
M  ZZI  24 111
M  ZZM  25 66
M  ZZI  25 222
M  ZZM  26 63
M  ZZI  26 104
M  ZZM  27 44
M  ZZI  27 248
M  ZZM  28 37
M  ZZI  28 125
M  ZZM  29 37
M  ZZI  29 125
M  ZZM  30 1
M  ZZI  30 112
M  ZZM  31 1
M  ZZI  31 113
M  ZZM  32 6
M  ZZI  32 60
M  ZZM  33 1
M  ZZI  33 112
M  ZZM  34 5
M  ZZI  34 1
M  ZZM  35 5
M  ZZI  35 1
M  ZZM  36 5
M  ZZI  36 1
M  ZZM  37 28
M  ZZI  37 11
M  ZZM  38 5
M  ZZI  38 1
M  ZZM  39 5
M  ZZI  39 1
M  ZZM  40 5
M  ZZI  40 1
M  ZZM  41 5
M  ZZI  41 1
M  ZZM  42 5
M  ZZI  42 1
M  ZZM  43 5
M  ZZI  43 1
M  ZZM  44 5
M  ZZI  44 1
M  ZZM  45 5
M  ZZI  45 1
M  ZZM  46 5
M  ZZI  46 1
M  ZZM  47 5
M  ZZI  47 1
M  ZZM  48 5
M  ZZI  48 1
M  ZZM  49 28
M  ZZI  49 11
M  ZZM  50 5
M  ZZI  50 1
M  ZZM  51 5
M  ZZI  51 1
M  ZZM  52 5
M  ZZI  52 1
M  ZZM  53 5
M  ZZI  53 1
M  ZZM  54 5
M  ZZI  54 1
M  ZZM  55 5
M  ZZI  55 1
M  ZZM  56 5
M  ZZI  56 1
M  ZZM  57 5
M  ZZI  57 1
M  ZZM  58 5
M  ZZI  58 1
M  ZZM  59 5
M  ZZI  59 1
M  ZZM  60 5
M  ZZI  60 1
M  ZZM  61 5
M  ZZI  61 1
M  ZZM  62 5
M  ZZI  62 1
M  ZZM  63 21
M  ZZI  63 20
M  ZZM  64 5
M  ZZI  64 1
M  ZZM  65 5
M  ZZI  65 1
M  END
> <IX>
1

> <NAME>
VHL_3UE4_3.pdb

> <Score>
-11.321084

> <Natom>
65

> <Nflex>
8

> <Hbond>
-4.955338

> <Hphob>
-6.45169

> <VwInt>
-28.104684

> <Dsolv>
16.805102

> <SolEl>
16.470512

> <Eintl>
8.94812

> <RecConf>
ND

> <projPath>
VHL_maps/

> <NAME_>
VHL_3UE4_3.pdb

$$$$
