VHL_1ERR_14.pdb
  MOLSOFT 04032206373D

 68 70  0  0  1  0  0  0  0  0999 V2000
   15.3333   -5.0150   -3.5124 O   0  0  0  0  0  0  0  0  0  0  0  0
   16.4721   -4.8808   -3.9332 C   0  0  0  0  0  0  0  0  0  0  0  0
   17.1367   -3.6720   -3.9982 N   0  0  0  0  0  0  0  0  0  0  0  0
   16.4594   -2.4002   -3.7270 C   0  0  1  0  0  0  0  0  0  0  0  0
   16.7531   -1.8047   -2.3170 C   0  0  0  0  0  0  0  0  0  0  0  0
   18.2132   -1.3636   -2.1470 C   0  0  0  0  0  0  0  0  0  0  0  0
   16.4356   -2.8444   -1.2276 C   0  0  0  0  0  0  0  0  0  0  0  0
   15.8534   -0.5828   -2.0752 C   0  0  0  0  0  0  0  0  0  0  0  0
   16.8441   -1.4806   -4.9075 C   0  0  0  0  0  0  0  0  0  0  0  0
   18.0182   -1.2587   -5.1792 O   0  0  0  0  0  0  0  0  0  0  0  0
   15.8028   -0.9528   -5.6728 N   0  0  0  0  0  0  0  0  0  0  0  0
   16.0239   -0.3262   -6.9802 C   0  0  2  0  0  0  0  0  0  0  0  0
   16.4186    1.1593   -6.9634 C   0  0  0  0  0  0  0  0  0  0  0  0
   16.0968    1.9281   -7.8605 O   0  0  0  0  0  0  0  0  0  0  0  0
   17.3028    1.5050   -5.9608 N   0  0  0  0  0  0  0  0  0  0  0  0
   17.7964    2.8589   -5.7574 C   0  0  1  0  0  0  0  0  0  0  0  0
   17.7161    3.1712   -4.2626 C   0  0  0  0  0  0  0  0  0  0  0  0
   19.2039    3.0776   -6.2898 C   0  0  0  0  0  0  0  0  0  0  0  0
   19.9543    2.0582   -6.8685 C   0  0  0  0  0  0  0  0  0  0  0  0
   21.2541    2.2750   -7.2882 C   0  0  0  0  0  0  0  0  0  0  0  0
   21.8592    3.5199   -7.1593 C   0  0  0  0  0  0  0  0  0  0  0  0
   23.2528    3.7287   -7.5418 C   0  0  0  0  0  0  0  0  0  0  0  0
   24.3220    4.2503   -6.8215 C   0  0  0  0  0  0  0  0  0  0  0  0
   24.3062    4.7616   -5.4310 C   0  0  0  0  0  0  0  0  0  0  0  0
   25.5279    4.2716   -7.4931 N   0  0  0  0  0  0  0  0  0  0  0  0
   25.3704    3.7917   -8.7050 C   0  0  0  0  0  0  0  0  0  0  0  0
   23.7909    3.3007   -9.1198 S   0  0  0  0  0  0  0  0  0  0  0  0
   21.1009    4.5534   -6.6259 C   0  0  0  0  0  0  0  0  0  0  0  0
   19.7986    4.3365   -6.2072 C   0  0  0  0  0  0  0  0  0  0  0  0
   14.6973   -0.5355   -7.6928 C   0  0  0  0  0  0  0  0  0  0  0  0
   13.6684   -0.4786   -6.5767 C   0  0  1  0  0  0  0  0  0  0  0  0
   12.4840   -1.2004   -6.9149 O   0  0  0  0  0  0  0  0  0  0  0  0
   14.3851   -1.1606   -5.4290 C   0  0  0  0  0  0  0  0  0  0  0  0
   17.2713   -6.0503   -4.4466 C   0  0  0  0  0  0  0  0  0  0  0  0
   18.1003   -3.6521   -4.3196 H   0  0  0  0  0  0  0  0  0  0  0  0
   15.3904   -2.6156   -3.7672 H   0  0  0  0  0  0  0  0  0  0  0  0
   18.8999   -2.1792   -2.3728 H   0  0  0  0  0  0  0  0  0  0  0  0
   18.4177   -1.0459   -1.1197 H   0  0  0  0  0  0  0  0  0  0  0  0
   18.4667   -0.5177   -2.7924 H   0  0  0  0  0  0  0  0  0  0  0  0
   15.4056   -3.2081   -1.3065 H   0  0  0  0  0  0  0  0  0  0  0  0
   16.5511   -2.4215   -0.2244 H   0  0  0  0  0  0  0  0  0  0  0  0
   17.1007   -3.7116   -1.2831 H   0  0  0  0  0  0  0  0  0  0  0  0
   14.7927   -0.8489   -2.1331 H   0  0  0  0  0  0  0  0  0  0  0  0
   16.0386    0.2103   -2.8065 H   0  0  0  0  0  0  0  0  0  0  0  0
   16.0231   -0.1512   -1.0833 H   0  0  0  0  0  0  0  0  0  0  0  0
   16.8293   -0.8540   -7.5019 H   0  0  0  0  0  0  0  0  0  0  0  0
   17.6876    0.7636   -5.3817 H   0  0  0  0  0  0  0  0  0  0  0  0
   17.1275    3.5394   -6.2964 H   0  0  0  0  0  0  0  0  0  0  0  0
   17.9727    4.2118   -4.0432 H   0  0  0  0  0  0  0  0  0  0  0  0
   18.3964    2.5336   -3.6867 H   0  0  0  0  0  0  0  0  0  0  0  0
   16.7049    2.9949   -3.8820 H   0  0  0  0  0  0  0  0  0  0  0  0
   19.5412    1.0624   -6.9860 H   0  0  0  0  0  0  0  0  0  0  0  0
   21.8028    1.4365   -7.7015 H   0  0  0  0  0  0  0  0  0  0  0  0
   23.8471    5.7532   -5.3899 H   0  0  0  0  0  0  0  0  0  0  0  0
   25.3223    4.8458   -5.0346 H   0  0  0  0  0  0  0  0  0  0  0  0
   23.7512    4.0947   -4.7668 H   0  0  0  0  0  0  0  0  0  0  0  0
   26.1888    3.7137   -9.4064 H   0  0  0  0  0  0  0  0  0  0  0  0
   21.5221    5.5493   -6.5273 H   0  0  0  0  0  0  0  0  0  0  0  0
   19.2452    5.1749   -5.7952 H   0  0  0  0  0  0  0  0  0  0  0  0
   14.4850    0.1992   -8.4731 H   0  0  0  0  0  0  0  0  0  0  0  0
   14.6856   -1.5261   -8.1603 H   0  0  0  0  0  0  0  0  0  0  0  0
   13.4077    0.5549   -6.3205 H   0  0  0  0  0  0  0  0  0  0  0  0
   12.0341   -0.7273   -7.6387 H   0  0  0  0  0  0  0  0  0  0  0  0
   14.1696   -2.2346   -5.4090 H   0  0  0  0  0  0  0  0  0  0  0  0
   14.0986   -0.7381   -4.4615 H   0  0  0  0  0  0  0  0  0  0  0  0
   16.7023   -6.5509   -5.2360 H   0  0  0  0  0  0  0  0  0  0  0  0
   17.4521   -6.7543   -3.6309 H   0  0  0  0  0  0  0  0  0  0  0  0
   18.2320   -5.7345   -4.8637 H   0  0  0  0  0  0  0  0  0  0  0  0
  1  2  2  0  0  0  0
  2  3  1  0  0  0  0
  2 34  1  0  0  0  0
  4  3  1  0  0  0  0
  3 35  1  0  0  0  0
  4  5  1  0  0  0  0
  4 36  1  0  0  0  0
  4  9  1  0  0  0  0
  5  6  1  0  0  0  0
  5  7  1  0  0  0  0
  5  8  1  0  0  0  0
  6 37  1  0  0  0  0
  6 38  1  0  0  0  0
  6 39  1  0  0  0  0
  7 40  1  0  0  0  0
  7 41  1  0  0  0  0
  7 42  1  0  0  0  0
  8 43  1  0  0  0  0
  8 44  1  0  0  0  0
  8 45  1  0  0  0  0
  9 10  2  0  0  0  0
  9 11  1  0  0  0  0
 11 33  1  0  0  0  0
 12 11  1  0  0  0  0
 12 30  1  0  0  0  0
 12 46  1  0  0  0  0
 12 13  1  0  0  0  0
 13 14  2  0  0  0  0
 13 15  1  0  0  0  0
 15 47  1  0  0  0  0
 16 15  1  0  0  0  0
 16 48  1  0  0  0  0
 16 17  1  0  0  0  0
 16 18  1  0  0  0  0
 17 49  1  0  0  0  0
 17 50  1  0  0  0  0
 17 51  1  0  0  0  0
 18 19  1  0  0  0  0
 18 29  2  0  0  0  0
 19 52  1  0  0  0  0
 19 20  2  0  0  0  0
 20 53  1  0  0  0  0
 20 21  1  0  0  0  0
 21 28  2  0  0  0  0
 21 22  1  0  0  0  0
 22 23  2  0  0  0  0
 22 27  1  0  0  0  0
 23 24  1  0  0  0  0
 23 25  1  0  0  0  0
 24 54  1  0  0  0  0
 24 55  1  0  0  0  0
 24 56  1  0  0  0  0
 25 26  2  0  0  0  0
 26 57  1  0  0  0  0
 26 27  1  0  0  0  0
 28 58  1  0  0  0  0
 28 29  1  0  0  0  0
 29 59  1  0  0  0  0
 31 30  1  0  0  0  0
 30 60  1  0  0  0  0
 30 61  1  0  0  0  0
 31 33  1  0  0  0  0
 31 62  1  0  0  0  0
 31 32  1  0  0  0  0
 32 63  1  0  0  0  0
 33 64  1  0  0  0  0
 33 65  1  0  0  0  0
 34 66  1  0  0  0  0
 34 67  1  0  0  0  0
 34 68  1  0  0  0  0
M  ZZC   1 o1
M  ZZC   2 c1
M  ZZC   3 n1
M  ZZC   4 c2
M  ZZC   5 c3
M  ZZC   6 c4
M  ZZC   7 c5
M  ZZC   8 c6
M  ZZC   9 c7
M  ZZC  10 o2
M  ZZC  11 n2
M  ZZC  12 c8
M  ZZC  13 c9
M  ZZC  14 o3
M  ZZC  15 n3
M  ZZC  16 c10
M  ZZC  17 c11
M  ZZC  18 c12
M  ZZC  19 c13
M  ZZC  20 c14
M  ZZC  21 c15
M  ZZC  22 c16
M  ZZC  23 c17
M  ZZC  24 c18
M  ZZC  25 n4
M  ZZC  26 c19
M  ZZC  27 s1
M  ZZC  28 c20
M  ZZC  29 c21
M  ZZC  30 c22
M  ZZC  31 c23
M  ZZC  32 o4
M  ZZC  33 c24
M  ZZC  34 c25
M  ZZC  35 h11
M  ZZC  36 h21
M  ZZC  37 h41
M  ZZC  38 h42
M  ZZC  39 h43
M  ZZC  40 h51
M  ZZC  41 h52
M  ZZC  42 h53
M  ZZC  43 h61
M  ZZC  44 h62
M  ZZC  45 h63
M  ZZC  46 h81
M  ZZC  47 h31
M  ZZC  48 h101
M  ZZC  49 h111
M  ZZC  50 h112
M  ZZC  51 h113
M  ZZC  52 h131
M  ZZC  53 h141
M  ZZC  54 h181
M  ZZC  55 h182
M  ZZC  56 h183
M  ZZC  57 h191
M  ZZC  58 h201
M  ZZC  59 h211
M  ZZC  60 h221
M  ZZC  61 h222
M  ZZC  62 h231
M  ZZC  63 h01
M  ZZC  64 h241
M  ZZC  65 h242
M  ZZC  66 h251
M  ZZC  67 h252
M  ZZC  68 h253
M  ZZM   1 7
M  ZZI   1 81
M  ZZM   2 3
M  ZZI   2 121
M  ZZM   3 10
M  ZZI   3 211
M  ZZM   4 1
M  ZZI   4 113
M  ZZM   5 1
M  ZZI   5 110
M  ZZM   6 1
M  ZZI   6 111
M  ZZM   7 1
M  ZZI   7 111
M  ZZM   8 1
M  ZZI   8 111
M  ZZM   9 3
M  ZZI   9 121
M  ZZM  10 7
M  ZZI  10 81
M  ZZM  11 10
M  ZZI  11 192
M  ZZM  12 1
M  ZZI  12 113
M  ZZM  13 3
M  ZZI  13 121
M  ZZM  14 7
M  ZZI  14 81
M  ZZM  15 10
M  ZZI  15 211
M  ZZM  16 1
M  ZZI  16 113
M  ZZM  17 1
M  ZZI  17 111
M  ZZM  18 37
M  ZZI  18 124
M  ZZM  19 37
M  ZZI  19 125
M  ZZM  20 37
M  ZZI  20 125
M  ZZM  21 37
M  ZZI  21 124
M  ZZM  22 63
M  ZZI  22 104
M  ZZM  23 64
M  ZZI  23 105
M  ZZM  24 1
M  ZZI  24 111
M  ZZM  25 66
M  ZZI  25 222
M  ZZM  26 63
M  ZZI  26 104
M  ZZM  27 44
M  ZZI  27 248
M  ZZM  28 37
M  ZZI  28 125
M  ZZM  29 37
M  ZZI  29 125
M  ZZM  30 1
M  ZZI  30 112
M  ZZM  31 1
M  ZZI  31 113
M  ZZM  32 6
M  ZZI  32 60
M  ZZM  33 1
M  ZZI  33 112
M  ZZM  34 1
M  ZZI  34 111
M  ZZM  35 28
M  ZZI  35 11
M  ZZM  36 5
M  ZZI  36 1
M  ZZM  37 5
M  ZZI  37 1
M  ZZM  38 5
M  ZZI  38 1
M  ZZM  39 5
M  ZZI  39 1
M  ZZM  40 5
M  ZZI  40 1
M  ZZM  41 5
M  ZZI  41 1
M  ZZM  42 5
M  ZZI  42 1
M  ZZM  43 5
M  ZZI  43 1
M  ZZM  44 5
M  ZZI  44 1
M  ZZM  45 5
M  ZZI  45 1
M  ZZM  46 5
M  ZZI  46 1
M  ZZM  47 28
M  ZZI  47 11
M  ZZM  48 5
M  ZZI  48 1
M  ZZM  49 5
M  ZZI  49 1
M  ZZM  50 5
M  ZZI  50 1
M  ZZM  51 5
M  ZZI  51 1
M  ZZM  52 5
M  ZZI  52 1
M  ZZM  53 5
M  ZZI  53 1
M  ZZM  54 5
M  ZZI  54 1
M  ZZM  55 5
M  ZZI  55 1
M  ZZM  56 5
M  ZZI  56 1
M  ZZM  57 5
M  ZZI  57 1
M  ZZM  58 5
M  ZZI  58 1
M  ZZM  59 5
M  ZZI  59 1
M  ZZM  60 5
M  ZZI  60 1
M  ZZM  61 5
M  ZZI  61 1
M  ZZM  62 5
M  ZZI  62 1
M  ZZM  63 21
M  ZZI  63 20
M  ZZM  64 5
M  ZZI  64 1
M  ZZM  65 5
M  ZZI  65 1
M  ZZM  66 5
M  ZZI  66 1
M  ZZM  67 5
M  ZZI  67 1
M  ZZM  68 5
M  ZZI  68 1
M  END
> <IX>
1

> <NAME>
VHL_1ERR_14.pdb

> <Score>
-15.940026

> <Natom>
68

> <Nflex>
8

> <Hbond>
-4.880499

> <Hphob>
-6.126347

> <VwInt>
-31.126691

> <Dsolv>
16.348221

> <SolEl>
16.476936

> <Eintl>
6.171727

> <RecConf>
ND

> <projPath>
VHL_maps/

> <NAME_>
VHL_1ERR_14.pdb

$$$$
