VHL_2GQG_22.pdb
  MOLSOFT 04032206383D

 65 67  0  0  1  0  0  0  0  0999 V2000
   18.0412   -7.0289   -5.1155 C   0  0  0  0  0  0  0  0  0  0  0  0
   16.8996   -6.0537   -5.0700 C   0  0  0  0  0  0  0  0  0  0  0  0
   15.8262   -6.3203   -5.5821 O   0  0  0  0  0  0  0  0  0  0  0  0
   17.1908   -4.8976   -4.3752 N   0  0  0  0  0  0  0  0  0  0  0  0
   16.2579   -3.7746   -4.2036 C   0  0  1  0  0  0  0  0  0  0  0  0
   15.8490   -3.5584   -2.7149 C   0  0  0  0  0  0  0  0  0  0  0  0
   17.0221   -3.0761   -1.8490 C   0  0  0  0  0  0  0  0  0  0  0  0
   15.3219   -4.8828   -2.1477 C   0  0  0  0  0  0  0  0  0  0  0  0
   14.7169   -2.5300   -2.5773 C   0  0  0  0  0  0  0  0  0  0  0  0
   16.9617   -2.5747   -4.8608 C   0  0  0  0  0  0  0  0  0  0  0  0
   18.1659   -2.4008   -4.7316 O   0  0  0  0  0  0  0  0  0  0  0  0
   16.1948   -1.6665   -5.5874 N   0  0  0  0  0  0  0  0  0  0  0  0
   16.8386   -0.5803   -6.3136 C   0  0  2  0  0  0  0  0  0  0  0  0
   17.3761    0.5095   -5.3886 C   0  0  0  0  0  0  0  0  0  0  0  0
   16.9302    0.7104   -4.2667 O   0  0  0  0  0  0  0  0  0  0  0  0
   18.3369    1.2996   -5.9964 N   0  0  0  0  0  0  0  0  0  0  0  0
   18.6966    2.6032   -5.4743 C   0  0  0  0  0  0  0  0  0  0  0  0
   17.6927    3.6093   -5.9705 C   0  0  0  0  0  0  0  0  0  0  0  0
   17.9245    4.3526   -7.1247 C   0  0  0  0  0  0  0  0  0  0  0  0
   16.8984    5.0787   -7.7078 C   0  0  0  0  0  0  0  0  0  0  0  0
   15.6216    5.0388   -7.1608 C   0  0  0  0  0  0  0  0  0  0  0  0
   14.4798    5.5933   -7.8549 C   0  0  0  0  0  0  0  0  0  0  0  0
   13.4477    4.9336   -8.5068 C   0  0  0  0  0  0  0  0  0  0  0  0
   13.3243    3.4728   -8.7320 C   0  0  0  0  0  0  0  0  0  0  0  0
   12.4365    5.7520   -8.9560 N   0  0  0  0  0  0  0  0  0  0  0  0
   12.7474    7.0033   -8.6979 C   0  0  0  0  0  0  0  0  0  0  0  0
   14.2278    7.2868   -7.9042 S   0  0  0  0  0  0  0  0  0  0  0  0
   15.4156    4.3819   -5.9581 C   0  0  0  0  0  0  0  0  0  0  0  0
   16.4463    3.6922   -5.3590 C   0  0  0  0  0  0  0  0  0  0  0  0
   15.7537   -0.0254   -7.2362 C   0  0  0  0  0  0  0  0  0  0  0  0
   14.4716   -0.3769   -6.5044 C   0  0  1  0  0  0  0  0  0  0  0  0
   13.3578   -0.4179   -7.3921 O   0  0  0  0  0  0  0  0  0  0  0  0
   14.7985   -1.7485   -5.9477 C   0  0  0  0  0  0  0  0  0  0  0  0
   18.9790   -6.5150   -5.3487 H   0  0  0  0  0  0  0  0  0  0  0  0
   17.8519   -7.7750   -5.8928 H   0  0  0  0  0  0  0  0  0  0  0  0
   18.1181   -7.5316   -4.1495 H   0  0  0  0  0  0  0  0  0  0  0  0
   18.1436   -4.7707   -4.0507 H   0  0  0  0  0  0  0  0  0  0  0  0
   15.3578   -4.0110   -4.7649 H   0  0  0  0  0  0  0  0  0  0  0  0
   16.7379   -3.0080   -0.7939 H   0  0  0  0  0  0  0  0  0  0  0  0
   17.3720   -2.0841   -2.1509 H   0  0  0  0  0  0  0  0  0  0  0  0
   17.8710   -3.7552   -1.9067 H   0  0  0  0  0  0  0  0  0  0  0  0
   14.9904   -4.7651   -1.1129 H   0  0  0  0  0  0  0  0  0  0  0  0
   16.0868   -5.6617   -2.1578 H   0  0  0  0  0  0  0  0  0  0  0  0
   14.4700   -5.2561   -2.7247 H   0  0  0  0  0  0  0  0  0  0  0  0
   15.0111   -1.5441   -2.9484 H   0  0  0  0  0  0  0  0  0  0  0  0
   14.4226   -2.3976   -1.5309 H   0  0  0  0  0  0  0  0  0  0  0  0
   13.8208   -2.8483   -3.1184 H   0  0  0  0  0  0  0  0  0  0  0  0
   17.6675   -0.9832   -6.8924 H   0  0  0  0  0  0  0  0  0  0  0  0
   18.7047    1.0273   -6.9035 H   0  0  0  0  0  0  0  0  0  0  0  0
   18.7156    2.5770   -4.3791 H   0  0  0  0  0  0  0  0  0  0  0  0
   19.7062    2.8421   -5.8243 H   0  0  0  0  0  0  0  0  0  0  0  0
   18.8951    4.3251   -7.6115 H   0  0  0  0  0  0  0  0  0  0  0  0
   17.0867    5.6289   -8.6255 H   0  0  0  0  0  0  0  0  0  0  0  0
   12.4133    3.2451   -9.2925 H   0  0  0  0  0  0  0  0  0  0  0  0
   13.2697    2.9284   -7.7853 H   0  0  0  0  0  0  0  0  0  0  0  0
   14.1788    3.0855   -9.2933 H   0  0  0  0  0  0  0  0  0  0  0  0
   12.1067    7.8260   -8.9606 H   0  0  0  0  0  0  0  0  0  0  0  0
   14.4299    4.3639   -5.5004 H   0  0  0  0  0  0  0  0  0  0  0  0
   16.2427    3.1472   -4.4421 H   0  0  0  0  0  0  0  0  0  0  0  0
   15.8330    1.0488   -7.4335 H   0  0  0  0  0  0  0  0  0  0  0  0
   15.7815   -0.5275   -8.2108 H   0  0  0  0  0  0  0  0  0  0  0  0
   14.2742    0.3476   -5.7051 H   0  0  0  0  0  0  0  0  0  0  0  0
   12.5471   -0.3913   -6.8539 H   0  0  0  0  0  0  0  0  0  0  0  0
   14.7145   -2.5100   -6.7271 H   0  0  0  0  0  0  0  0  0  0  0  0
   14.1530   -2.0380   -5.1196 H   0  0  0  0  0  0  0  0  0  0  0  0
  1 34  1  0  0  0  0
  1 35  1  0  0  0  0
  1 36  1  0  0  0  0
  1  2  1  0  0  0  0
  2  3  2  0  0  0  0
  2  4  1  0  0  0  0
  4 37  1  0  0  0  0
  5  4  1  0  0  0  0
  5 38  1  0  0  0  0
  5  6  1  0  0  0  0
  5 10  1  0  0  0  0
  6  7  1  0  0  0  0
  6  8  1  0  0  0  0
  6  9  1  0  0  0  0
  7 39  1  0  0  0  0
  7 40  1  0  0  0  0
  7 41  1  0  0  0  0
  8 42  1  0  0  0  0
  8 43  1  0  0  0  0
  8 44  1  0  0  0  0
  9 45  1  0  0  0  0
  9 46  1  0  0  0  0
  9 47  1  0  0  0  0
 10 11  2  0  0  0  0
 10 12  1  0  0  0  0
 12 33  1  0  0  0  0
 13 12  1  0  0  0  0
 13 30  1  0  0  0  0
 13 48  1  0  0  0  0
 13 14  1  0  0  0  0
 14 15  2  0  0  0  0
 14 16  1  0  0  0  0
 16 49  1  0  0  0  0
 16 17  1  0  0  0  0
 17 50  1  0  0  0  0
 17 51  1  0  0  0  0
 17 18  1  0  0  0  0
 18 19  1  0  0  0  0
 18 29  2  0  0  0  0
 19 52  1  0  0  0  0
 19 20  2  0  0  0  0
 20 53  1  0  0  0  0
 20 21  1  0  0  0  0
 21 28  2  0  0  0  0
 21 22  1  0  0  0  0
 22 23  2  0  0  0  0
 22 27  1  0  0  0  0
 23 24  1  0  0  0  0
 23 25  1  0  0  0  0
 24 54  1  0  0  0  0
 24 55  1  0  0  0  0
 24 56  1  0  0  0  0
 25 26  2  0  0  0  0
 26 57  1  0  0  0  0
 26 27  1  0  0  0  0
 28 58  1  0  0  0  0
 28 29  1  0  0  0  0
 29 59  1  0  0  0  0
 31 30  1  0  0  0  0
 30 60  1  0  0  0  0
 30 61  1  0  0  0  0
 31 33  1  0  0  0  0
 31 62  1  0  0  0  0
 31 32  1  0  0  0  0
 32 63  1  0  0  0  0
 33 64  1  0  0  0  0
 33 65  1  0  0  0  0
M  ZZC   1 c1
M  ZZC   2 c2
M  ZZC   3 o1
M  ZZC   4 n1
M  ZZC   5 c3
M  ZZC   6 c4
M  ZZC   7 c5
M  ZZC   8 c6
M  ZZC   9 c7
M  ZZC  10 c8
M  ZZC  11 o2
M  ZZC  12 n2
M  ZZC  13 c9
M  ZZC  14 c10
M  ZZC  15 o3
M  ZZC  16 n3
M  ZZC  17 c11
M  ZZC  18 c12
M  ZZC  19 c13
M  ZZC  20 c14
M  ZZC  21 c15
M  ZZC  22 c16
M  ZZC  23 c17
M  ZZC  24 c18
M  ZZC  25 n4
M  ZZC  26 c19
M  ZZC  27 s1
M  ZZC  28 c20
M  ZZC  29 c21
M  ZZC  30 c22
M  ZZC  31 c23
M  ZZC  32 o4
M  ZZC  33 c24
M  ZZC  34 h11
M  ZZC  35 h12
M  ZZC  36 h13
M  ZZC  37 h01
M  ZZC  38 h31
M  ZZC  39 h51
M  ZZC  40 h52
M  ZZC  41 h53
M  ZZC  42 h61
M  ZZC  43 h62
M  ZZC  44 h63
M  ZZC  45 h71
M  ZZC  46 h72
M  ZZC  47 h73
M  ZZC  48 h91
M  ZZC  49 h02
M  ZZC  50 h111
M  ZZC  51 h112
M  ZZC  52 h131
M  ZZC  53 h141
M  ZZC  54 h181
M  ZZC  55 h182
M  ZZC  56 h183
M  ZZC  57 h191
M  ZZC  58 h201
M  ZZC  59 h211
M  ZZC  60 h221
M  ZZC  61 h222
M  ZZC  62 h231
M  ZZC  63 h41
M  ZZC  64 h241
M  ZZC  65 h242
M  ZZM   1 1
M  ZZI   1 111
M  ZZM   2 3
M  ZZI   2 121
M  ZZM   3 7
M  ZZI   3 81
M  ZZM   4 10
M  ZZI   4 211
M  ZZM   5 1
M  ZZI   5 113
M  ZZM   6 1
M  ZZI   6 110
M  ZZM   7 1
M  ZZI   7 111
M  ZZM   8 1
M  ZZI   8 111
M  ZZM   9 1
M  ZZI   9 111
M  ZZM  10 3
M  ZZI  10 121
M  ZZM  11 7
M  ZZI  11 81
M  ZZM  12 10
M  ZZI  12 192
M  ZZM  13 1
M  ZZI  13 113
M  ZZM  14 3
M  ZZI  14 121
M  ZZM  15 7
M  ZZI  15 81
M  ZZM  16 10
M  ZZI  16 211
M  ZZM  17 1
M  ZZI  17 112
M  ZZM  18 37
M  ZZI  18 124
M  ZZM  19 37
M  ZZI  19 125
M  ZZM  20 37
M  ZZI  20 125
M  ZZM  21 37
M  ZZI  21 124
M  ZZM  22 63
M  ZZI  22 104
M  ZZM  23 64
M  ZZI  23 105
M  ZZM  24 1
M  ZZI  24 111
M  ZZM  25 66
M  ZZI  25 222
M  ZZM  26 63
M  ZZI  26 104
M  ZZM  27 44
M  ZZI  27 248
M  ZZM  28 37
M  ZZI  28 125
M  ZZM  29 37
M  ZZI  29 125
M  ZZM  30 1
M  ZZI  30 112
M  ZZM  31 1
M  ZZI  31 113
M  ZZM  32 6
M  ZZI  32 60
M  ZZM  33 1
M  ZZI  33 112
M  ZZM  34 5
M  ZZI  34 1
M  ZZM  35 5
M  ZZI  35 1
M  ZZM  36 5
M  ZZI  36 1
M  ZZM  37 28
M  ZZI  37 11
M  ZZM  38 5
M  ZZI  38 1
M  ZZM  39 5
M  ZZI  39 1
M  ZZM  40 5
M  ZZI  40 1
M  ZZM  41 5
M  ZZI  41 1
M  ZZM  42 5
M  ZZI  42 1
M  ZZM  43 5
M  ZZI  43 1
M  ZZM  44 5
M  ZZI  44 1
M  ZZM  45 5
M  ZZI  45 1
M  ZZM  46 5
M  ZZI  46 1
M  ZZM  47 5
M  ZZI  47 1
M  ZZM  48 5
M  ZZI  48 1
M  ZZM  49 28
M  ZZI  49 11
M  ZZM  50 5
M  ZZI  50 1
M  ZZM  51 5
M  ZZI  51 1
M  ZZM  52 5
M  ZZI  52 1
M  ZZM  53 5
M  ZZI  53 1
M  ZZM  54 5
M  ZZI  54 1
M  ZZM  55 5
M  ZZI  55 1
M  ZZM  56 5
M  ZZI  56 1
M  ZZM  57 5
M  ZZI  57 1
M  ZZM  58 5
M  ZZI  58 1
M  ZZM  59 5
M  ZZI  59 1
M  ZZM  60 5
M  ZZI  60 1
M  ZZM  61 5
M  ZZI  61 1
M  ZZM  62 5
M  ZZI  62 1
M  ZZM  63 21
M  ZZI  63 20
M  ZZM  64 5
M  ZZI  64 1
M  ZZM  65 5
M  ZZI  65 1
M  END
> <IX>
1

> <NAME>
VHL_2GQG_22.pdb

> <Score>
-7.547772

> <Natom>
65

> <Nflex>
8

> <Hbond>
-6.151687

> <Hphob>
-6.874157

> <VwInt>
-28.196645

> <Dsolv>
21.570945

> <SolEl>
23.686266

> <Eintl>
7.011967

> <RecConf>
ND

> <projPath>
VHL_maps/

> <NAME_>
VHL_2GQG_22.pdb

$$$$
