VHL_6Y7K_7.pdb
  MOLSOFT 04032206443D

 61 63  0  0  1  0  0  0  0  0999 V2000
   17.9078   -3.7046   -4.5191 N   0  3  0  0  0  0  0  0  0  0  0  0
   16.5497   -3.0672   -4.5448 C   0  0  1  0  0  0  0  0  0  0  0  0
   15.6922   -3.5271   -3.3241 C   0  0  0  0  0  0  0  0  0  0  0  0
   15.5870   -5.0600   -3.2816 C   0  0  0  0  0  0  0  0  0  0  0  0
   16.2493   -3.0757   -1.9612 C   0  0  0  0  0  0  0  0  0  0  0  0
   14.2793   -2.9505   -3.4828 C   0  0  0  0  0  0  0  0  0  0  0  0
   16.6981   -1.5363   -4.6286 C   0  0  0  0  0  0  0  0  0  0  0  0
   17.2566   -0.9123   -3.7372 O   0  0  0  0  0  0  0  0  0  0  0  0
   16.1858   -0.8937   -5.7536 N   0  0  0  0  0  0  0  0  0  0  0  0
   16.1559    0.5573   -5.8559 C   0  0  2  0  0  0  0  0  0  0  0  0
   14.8221    1.0487   -5.2785 C   0  0  0  0  0  0  0  0  0  0  0  0
   13.8731    1.3655   -5.9823 O   0  0  0  0  0  0  0  0  0  0  0  0
   14.7730    1.0486   -3.8959 N   0  0  0  0  0  0  0  0  0  0  0  0
   13.5630    1.4299   -3.1975 C   0  0  0  0  0  0  0  0  0  0  0  0
   13.6178    1.1457   -1.7201 C   0  0  0  0  0  0  0  0  0  0  0  0
   13.2225   -0.0885   -1.2185 C   0  0  0  0  0  0  0  0  0  0  0  0
   13.2380   -0.3430    0.1395 C   0  0  0  0  0  0  0  0  0  0  0  0
   13.6664    0.6223    1.0445 C   0  0  0  0  0  0  0  0  0  0  0  0
   13.6656    0.3583    2.4809 C   0  0  0  0  0  0  0  0  0  0  0  0
   13.1982    1.1197    3.5479 C   0  0  0  0  0  0  0  0  0  0  0  0
   12.5223    2.4375    3.4861 C   0  0  0  0  0  0  0  0  0  0  0  0
   13.3732    0.5522    4.7951 N   0  0  0  0  0  0  0  0  0  0  0  0
   13.9423   -0.6247    4.6704 C   0  0  0  0  0  0  0  0  0  0  0  0
   14.3183   -1.1192    3.0815 S   0  0  0  0  0  0  0  0  0  0  0  0
   14.0857    1.8494    0.5395 C   0  0  0  0  0  0  0  0  0  0  0  0
   14.0623    2.1078   -0.8215 C   0  0  0  0  0  0  0  0  0  0  0  0
   16.2931    0.8132   -7.3485 C   0  0  0  0  0  0  0  0  0  0  0  0
   15.6506   -0.4003   -8.0149 C   0  0  1  0  0  0  0  0  0  0  0  0
   16.3886   -0.7965   -9.1776 O   0  0  0  0  0  0  0  0  0  0  0  0
   15.6740   -1.5054   -6.9636 C   0  0  0  0  0  0  0  0  0  0  0  0
   18.4607   -3.3711   -3.7200 H   0  0  0  0  0  0  0  0  0  0  0  0
   18.4433   -3.4896   -5.3711 H   0  0  0  0  0  0  0  0  0  0  0  0
   17.8831   -4.7300   -4.4550 H   0  0  0  0  0  0  0  0  0  0  0  0
   16.0991   -3.4535   -5.4594 H   0  0  0  0  0  0  0  0  0  0  0  0
   14.8110   -5.3912   -2.5838 H   0  0  0  0  0  0  0  0  0  0  0  0
   16.5216   -5.5262   -2.9572 H   0  0  0  0  0  0  0  0  0  0  0  0
   15.3461   -5.4733   -4.2628 H   0  0  0  0  0  0  0  0  0  0  0  0
   15.6708   -3.5105   -1.1391 H   0  0  0  0  0  0  0  0  0  0  0  0
   16.1993   -1.9918   -1.8299 H   0  0  0  0  0  0  0  0  0  0  0  0
   17.2887   -3.3845   -1.8178 H   0  0  0  0  0  0  0  0  0  0  0  0
   13.6462   -3.2091   -2.6328 H   0  0  0  0  0  0  0  0  0  0  0  0
   13.7898   -3.3210   -4.3867 H   0  0  0  0  0  0  0  0  0  0  0  0
   14.2885   -1.8605   -3.5469 H   0  0  0  0  0  0  0  0  0  0  0  0
   16.9778    1.0139   -5.2920 H   0  0  0  0  0  0  0  0  0  0  0  0
   15.5883    0.7651   -3.3589 H   0  0  0  0  0  0  0  0  0  0  0  0
   13.3877    2.4961   -3.3791 H   0  0  0  0  0  0  0  0  0  0  0  0
   12.7236    0.8914   -3.6503 H   0  0  0  0  0  0  0  0  0  0  0  0
   12.8762   -0.8687   -1.8875 H   0  0  0  0  0  0  0  0  0  0  0  0
   12.8877   -1.3088    0.4866 H   0  0  0  0  0  0  0  0  0  0  0  0
   13.2528    3.2409    3.3570 H   0  0  0  0  0  0  0  0  0  0  0  0
   11.9642    2.6343    4.4061 H   0  0  0  0  0  0  0  0  0  0  0  0
   11.8076    2.4782    2.6592 H   0  0  0  0  0  0  0  0  0  0  0  0
   14.1641   -1.2514    5.5222 H   0  0  0  0  0  0  0  0  0  0  0  0
   14.4448    2.6249    1.2087 H   0  0  0  0  0  0  0  0  0  0  0  0
   14.3908    3.0791   -1.1799 H   0  0  0  0  0  0  0  0  0  0  0  0
   15.8291    1.7495   -7.6751 H   0  0  0  0  0  0  0  0  0  0  0  0
   17.3535    0.8814   -7.6137 H   0  0  0  0  0  0  0  0  0  0  0  0
   14.6232   -0.1805   -8.3157 H   0  0  0  0  0  0  0  0  0  0  0  0
   17.3371   -0.7250   -8.9562 H   0  0  0  0  0  0  0  0  0  0  0  0
   16.2924   -2.3574   -7.2518 H   0  0  0  0  0  0  0  0  0  0  0  0
   14.6632   -1.8676   -6.7529 H   0  0  0  0  0  0  0  0  0  0  0  0
  1 31  1  0  0  0  0
  1 32  1  0  0  0  0
  1 33  1  0  0  0  0
  2  1  1  0  0  0  0
  2 34  1  0  0  0  0
  2  3  1  0  0  0  0
  2  7  1  0  0  0  0
  3  4  1  0  0  0  0
  3  5  1  0  0  0  0
  3  6  1  0  0  0  0
  4 35  1  0  0  0  0
  4 36  1  0  0  0  0
  4 37  1  0  0  0  0
  5 38  1  0  0  0  0
  5 39  1  0  0  0  0
  5 40  1  0  0  0  0
  6 41  1  0  0  0  0
  6 42  1  0  0  0  0
  6 43  1  0  0  0  0
  7  8  2  0  0  0  0
  7  9  1  0  0  0  0
  9 30  1  0  0  0  0
 10  9  1  0  0  0  0
 10 27  1  0  0  0  0
 10 44  1  0  0  0  0
 10 11  1  0  0  0  0
 11 12  2  0  0  0  0
 11 13  1  0  0  0  0
 13 45  1  0  0  0  0
 13 14  1  0  0  0  0
 14 46  1  0  0  0  0
 14 47  1  0  0  0  0
 14 15  1  0  0  0  0
 15 16  1  0  0  0  0
 15 26  2  0  0  0  0
 16 48  1  0  0  0  0
 16 17  2  0  0  0  0
 17 49  1  0  0  0  0
 17 18  1  0  0  0  0
 18 25  2  0  0  0  0
 18 19  1  0  0  0  0
 19 20  2  0  0  0  0
 19 24  1  0  0  0  0
 20 21  1  0  0  0  0
 20 22  1  0  0  0  0
 21 50  1  0  0  0  0
 21 51  1  0  0  0  0
 21 52  1  0  0  0  0
 22 23  2  0  0  0  0
 23 53  1  0  0  0  0
 23 24  1  0  0  0  0
 25 54  1  0  0  0  0
 25 26  1  0  0  0  0
 26 55  1  0  0  0  0
 28 27  1  0  0  0  0
 27 56  1  0  0  0  0
 27 57  1  0  0  0  0
 28 30  1  0  0  0  0
 28 58  1  0  0  0  0
 28 29  1  0  0  0  0
 29 59  1  0  0  0  0
 30 60  1  0  0  0  0
 30 61  1  0  0  0  0
M  ZZC   1 n1
M  ZZC   2 c1
M  ZZC   3 c2
M  ZZC   4 c3
M  ZZC   5 c4
M  ZZC   6 c5
M  ZZC   7 c6
M  ZZC   8 o1
M  ZZC   9 n2
M  ZZC  10 c7
M  ZZC  11 c8
M  ZZC  12 o2
M  ZZC  13 n3
M  ZZC  14 c9
M  ZZC  15 c10
M  ZZC  16 c11
M  ZZC  17 c12
M  ZZC  18 c13
M  ZZC  19 c14
M  ZZC  20 c15
M  ZZC  21 c16
M  ZZC  22 n4
M  ZZC  23 c17
M  ZZC  24 s1
M  ZZC  25 c18
M  ZZC  26 c19
M  ZZC  27 c20
M  ZZC  28 c21
M  ZZC  29 o3
M  ZZC  30 c22
M  ZZC  31 h11
M  ZZC  32 h12
M  ZZC  33 h13
M  ZZC  34 h01
M  ZZC  35 h31
M  ZZC  36 h32
M  ZZC  37 h33
M  ZZC  38 h41
M  ZZC  39 h42
M  ZZC  40 h43
M  ZZC  41 h51
M  ZZC  42 h52
M  ZZC  43 h53
M  ZZC  44 h71
M  ZZC  45 h02
M  ZZC  46 h91
M  ZZC  47 h92
M  ZZC  48 h111
M  ZZC  49 h121
M  ZZC  50 h161
M  ZZC  51 h162
M  ZZC  52 h163
M  ZZC  53 h171
M  ZZC  54 h181
M  ZZC  55 h191
M  ZZC  56 h201
M  ZZC  57 h202
M  ZZC  58 h211
M  ZZC  59 h03
M  ZZC  60 h221
M  ZZC  61 h222
M  ZZM   1 34
M  ZZI   1 231
M  ZZM   2 1
M  ZZI   2 113
M  ZZM   3 1
M  ZZI   3 110
M  ZZM   4 1
M  ZZI   4 111
M  ZZM   5 1
M  ZZI   5 111
M  ZZM   6 1
M  ZZI   6 111
M  ZZM   7 3
M  ZZI   7 121
M  ZZM   8 7
M  ZZI   8 81
M  ZZM   9 10
M  ZZI   9 192
M  ZZM  10 1
M  ZZI  10 113
M  ZZM  11 3
M  ZZI  11 121
M  ZZM  12 7
M  ZZI  12 81
M  ZZM  13 10
M  ZZI  13 211
M  ZZM  14 1
M  ZZI  14 112
M  ZZM  15 37
M  ZZI  15 124
M  ZZM  16 37
M  ZZI  16 125
M  ZZM  17 37
M  ZZI  17 125
M  ZZM  18 37
M  ZZI  18 124
M  ZZM  19 63
M  ZZI  19 104
M  ZZM  20 64
M  ZZI  20 105
M  ZZM  21 1
M  ZZI  21 111
M  ZZM  22 66
M  ZZI  22 222
M  ZZM  23 63
M  ZZI  23 104
M  ZZM  24 44
M  ZZI  24 248
M  ZZM  25 37
M  ZZI  25 125
M  ZZM  26 37
M  ZZI  26 125
M  ZZM  27 1
M  ZZI  27 112
M  ZZM  28 1
M  ZZI  28 113
M  ZZM  29 6
M  ZZI  29 60
M  ZZM  30 1
M  ZZI  30 112
M  ZZM  31 36
M  ZZI  31 17
M  ZZM  32 36
M  ZZI  32 17
M  ZZM  33 36
M  ZZI  33 17
M  ZZM  34 5
M  ZZI  34 1
M  ZZM  35 5
M  ZZI  35 1
M  ZZM  36 5
M  ZZI  36 1
M  ZZM  37 5
M  ZZI  37 1
M  ZZM  38 5
M  ZZI  38 1
M  ZZM  39 5
M  ZZI  39 1
M  ZZM  40 5
M  ZZI  40 1
M  ZZM  41 5
M  ZZI  41 1
M  ZZM  42 5
M  ZZI  42 1
M  ZZM  43 5
M  ZZI  43 1
M  ZZM  44 5
M  ZZI  44 1
M  ZZM  45 28
M  ZZI  45 11
M  ZZM  46 5
M  ZZI  46 1
M  ZZM  47 5
M  ZZI  47 1
M  ZZM  48 5
M  ZZI  48 1
M  ZZM  49 5
M  ZZI  49 1
M  ZZM  50 5
M  ZZI  50 1
M  ZZM  51 5
M  ZZI  51 1
M  ZZM  52 5
M  ZZI  52 1
M  ZZM  53 5
M  ZZI  53 1
M  ZZM  54 5
M  ZZI  54 1
M  ZZM  55 5
M  ZZI  55 1
M  ZZM  56 5
M  ZZI  56 1
M  ZZM  57 5
M  ZZI  57 1
M  ZZM  58 5
M  ZZI  58 1
M  ZZM  59 21
M  ZZI  59 20
M  ZZM  60 5
M  ZZI  60 1
M  ZZM  61 5
M  ZZI  61 1
M  CHG  1   1   1
M  END
> <IX>
1

> <NAME>
VHL_6Y7K_7.pdb

> <Score>
-20.0462

> <Natom>
61

> <Nflex>
7

> <Hbond>
-5.79145

> <Hphob>
-5.826725

> <VwInt>
-24.901206

> <Dsolv>
13.355128

> <SolEl>
8.741003

> <Eintl>
5.709789

> <RecConf>
ND

> <projPath>
VHL_maps/

> <NAME_>
VHL_6Y7K_7.pdb

$$$$
