VHL_6ZWP_1.pdb
  MOLSOFT 04032206453D

 65 67  0  0  1  0  0  0  0  0999 V2000
   18.3562   -6.9375   -5.3275 C   0  0  0  0  0  0  0  0  0  0  0  0
   17.1804   -6.0012   -5.2865 C   0  0  0  0  0  0  0  0  0  0  0  0
   16.0784   -6.3638   -5.6654 O   0  0  0  0  0  0  0  0  0  0  0  0
   17.4767   -4.7585   -4.7596 N   0  0  0  0  0  0  0  0  0  0  0  0
   16.5043   -3.6668   -4.6419 C   0  0  1  0  0  0  0  0  0  0  0  0
   15.8854   -3.5394   -3.2124 C   0  0  0  0  0  0  0  0  0  0  0  0
   15.4034   -4.9064   -2.7016 C   0  0  0  0  0  0  0  0  0  0  0  0
   16.8904   -2.9832   -2.1913 C   0  0  0  0  0  0  0  0  0  0  0  0
   14.6621   -2.6092   -3.2429 C   0  0  0  0  0  0  0  0  0  0  0  0
   17.2007   -2.3767   -5.1173 C   0  0  0  0  0  0  0  0  0  0  0  0
   18.3514   -2.1223   -4.7928 O   0  0  0  0  0  0  0  0  0  0  0  0
   16.4624   -1.4636   -5.8712 N   0  0  0  0  0  0  0  0  0  0  0  0
   17.0251   -0.1660   -6.2250 C   0  0  2  0  0  0  0  0  0  0  0  0
   17.2048    0.8068   -5.0673 C   0  0  0  0  0  0  0  0  0  0  0  0
   16.5487    0.7634   -4.0355 O   0  0  0  0  0  0  0  0  0  0  0  0
   18.1105    1.8034   -5.3779 N   0  0  0  0  0  0  0  0  0  0  0  0
   18.2264    3.0105   -4.5941 C   0  0  0  0  0  0  0  0  0  0  0  0
   17.2840    4.0597   -5.1254 C   0  0  0  0  0  0  0  0  0  0  0  0
   16.0835    4.3324   -4.4772 C   0  0  0  0  0  0  0  0  0  0  0  0
   15.2073    5.2800   -4.9780 C   0  0  0  0  0  0  0  0  0  0  0  0
   15.5054    5.9744   -6.1463 C   0  0  0  0  0  0  0  0  0  0  0  0
   14.6178    7.0127   -6.6485 C   0  0  0  0  0  0  0  0  0  0  0  0
   13.9338    7.1289   -7.8521 C   0  0  0  0  0  0  0  0  0  0  0  0
   13.8954    6.1412   -8.9542 C   0  0  0  0  0  0  0  0  0  0  0  0
   13.2259    8.3040   -8.0082 N   0  0  0  0  0  0  0  0  0  0  0  0
   13.3725    9.0494   -6.9360 C   0  0  0  0  0  0  0  0  0  0  0  0
   14.3229    8.4016   -5.6802 S   0  0  0  0  0  0  0  0  0  0  0  0
   16.6893    5.6793   -6.8137 C   0  0  0  0  0  0  0  0  0  0  0  0
   17.5681    4.7360   -6.3089 C   0  0  0  0  0  0  0  0  0  0  0  0
   16.0362    0.4481   -7.2100 C   0  0  0  0  0  0  0  0  0  0  0  0
   15.3715   -0.7554   -7.8360 C   0  0  1  0  0  0  0  0  0  0  0  0
   16.1708   -1.2363   -8.9261 O   0  0  0  0  0  0  0  0  0  0  0  0
   15.3175   -1.7725   -6.7039 C   0  0  0  0  0  0  0  0  0  0  0  0
   19.3030   -6.3895   -5.3517 H   0  0  0  0  0  0  0  0  0  0  0  0
   18.2937   -7.5528   -6.2292 H   0  0  0  0  0  0  0  0  0  0  0  0
   18.3253   -7.5828   -4.4471 H   0  0  0  0  0  0  0  0  0  0  0  0
   18.4264   -4.5800   -4.4551 H   0  0  0  0  0  0  0  0  0  0  0  0
   15.7113   -3.9033   -5.3378 H   0  0  0  0  0  0  0  0  0  0  0  0
   14.9186   -4.8222   -1.7241 H   0  0  0  0  0  0  0  0  0  0  0  0
   16.2267   -5.6162   -2.5845 H   0  0  0  0  0  0  0  0  0  0  0  0
   14.6741   -5.3495   -3.3828 H   0  0  0  0  0  0  0  0  0  0  0  0
   16.4728   -2.9864   -1.1791 H   0  0  0  0  0  0  0  0  0  0  0  0
   17.1735   -1.9499   -2.4129 H   0  0  0  0  0  0  0  0  0  0  0  0
   17.8058   -3.5772   -2.1640 H   0  0  0  0  0  0  0  0  0  0  0  0
   14.9411   -1.5904   -3.5312 H   0  0  0  0  0  0  0  0  0  0  0  0
   14.1833   -2.5467   -2.2606 H   0  0  0  0  0  0  0  0  0  0  0  0
   13.9081   -2.9442   -3.9600 H   0  0  0  0  0  0  0  0  0  0  0  0
   17.9966   -0.3378   -6.6905 H   0  0  0  0  0  0  0  0  0  0  0  0
   18.6447    1.7468   -6.2385 H   0  0  0  0  0  0  0  0  0  0  0  0
   18.0190    2.7899   -3.5414 H   0  0  0  0  0  0  0  0  0  0  0  0
   19.2628    3.3580   -4.6612 H   0  0  0  0  0  0  0  0  0  0  0  0
   15.8198    3.8000   -3.5675 H   0  0  0  0  0  0  0  0  0  0  0  0
   14.2810    5.4725   -4.4439 H   0  0  0  0  0  0  0  0  0  0  0  0
   14.8755    6.0518   -9.4311 H   0  0  0  0  0  0  0  0  0  0  0  0
   13.1759    6.4375   -9.7227 H   0  0  0  0  0  0  0  0  0  0  0  0
   13.5987    5.1549   -8.5851 H   0  0  0  0  0  0  0  0  0  0  0  0
   12.9231   10.0244   -6.8373 H   0  0  0  0  0  0  0  0  0  0  0  0
   16.9494    6.2047   -7.7285 H   0  0  0  0  0  0  0  0  0  0  0  0
   18.4885    4.5321   -6.8486 H   0  0  0  0  0  0  0  0  0  0  0  0
   15.2876    1.0556   -6.6876 H   0  0  0  0  0  0  0  0  0  0  0  0
   16.5393    1.0872   -7.9436 H   0  0  0  0  0  0  0  0  0  0  0  0
   14.3781   -0.5190   -8.2170 H   0  0  0  0  0  0  0  0  0  0  0  0
   17.1045   -1.1828   -8.6500 H   0  0  0  0  0  0  0  0  0  0  0  0
   15.3800   -2.7968   -7.0789 H   0  0  0  0  0  0  0  0  0  0  0  0
   14.4188   -1.6436   -6.0924 H   0  0  0  0  0  0  0  0  0  0  0  0
  1 34  1  0  0  0  0
  1 35  1  0  0  0  0
  1 36  1  0  0  0  0
  1  2  1  0  0  0  0
  2  3  2  0  0  0  0
  2  4  1  0  0  0  0
  4 37  1  0  0  0  0
  5  4  1  0  0  0  0
  5 38  1  0  0  0  0
  5  6  1  0  0  0  0
  5 10  1  0  0  0  0
  6  7  1  0  0  0  0
  6  8  1  0  0  0  0
  6  9  1  0  0  0  0
  7 39  1  0  0  0  0
  7 40  1  0  0  0  0
  7 41  1  0  0  0  0
  8 42  1  0  0  0  0
  8 43  1  0  0  0  0
  8 44  1  0  0  0  0
  9 45  1  0  0  0  0
  9 46  1  0  0  0  0
  9 47  1  0  0  0  0
 10 11  2  0  0  0  0
 10 12  1  0  0  0  0
 12 33  1  0  0  0  0
 13 12  1  0  0  0  0
 13 30  1  0  0  0  0
 13 48  1  0  0  0  0
 13 14  1  0  0  0  0
 14 15  2  0  0  0  0
 14 16  1  0  0  0  0
 16 49  1  0  0  0  0
 16 17  1  0  0  0  0
 17 50  1  0  0  0  0
 17 51  1  0  0  0  0
 17 18  1  0  0  0  0
 18 19  1  0  0  0  0
 18 29  2  0  0  0  0
 19 52  1  0  0  0  0
 19 20  2  0  0  0  0
 20 53  1  0  0  0  0
 20 21  1  0  0  0  0
 21 28  2  0  0  0  0
 21 22  1  0  0  0  0
 22 23  2  0  0  0  0
 22 27  1  0  0  0  0
 23 24  1  0  0  0  0
 23 25  1  0  0  0  0
 24 54  1  0  0  0  0
 24 55  1  0  0  0  0
 24 56  1  0  0  0  0
 25 26  2  0  0  0  0
 26 57  1  0  0  0  0
 26 27  1  0  0  0  0
 28 58  1  0  0  0  0
 28 29  1  0  0  0  0
 29 59  1  0  0  0  0
 31 30  1  0  0  0  0
 30 60  1  0  0  0  0
 30 61  1  0  0  0  0
 31 33  1  0  0  0  0
 31 62  1  0  0  0  0
 31 32  1  0  0  0  0
 32 63  1  0  0  0  0
 33 64  1  0  0  0  0
 33 65  1  0  0  0  0
M  ZZC   1 c1
M  ZZC   2 c2
M  ZZC   3 o1
M  ZZC   4 n1
M  ZZC   5 c3
M  ZZC   6 c4
M  ZZC   7 c5
M  ZZC   8 c6
M  ZZC   9 c7
M  ZZC  10 c8
M  ZZC  11 o2
M  ZZC  12 n2
M  ZZC  13 c9
M  ZZC  14 c10
M  ZZC  15 o3
M  ZZC  16 n3
M  ZZC  17 c11
M  ZZC  18 c12
M  ZZC  19 c13
M  ZZC  20 c14
M  ZZC  21 c15
M  ZZC  22 c16
M  ZZC  23 c17
M  ZZC  24 c18
M  ZZC  25 n4
M  ZZC  26 c19
M  ZZC  27 s1
M  ZZC  28 c20
M  ZZC  29 c21
M  ZZC  30 c22
M  ZZC  31 c23
M  ZZC  32 o4
M  ZZC  33 c24
M  ZZC  34 h11
M  ZZC  35 h12
M  ZZC  36 h13
M  ZZC  37 h01
M  ZZC  38 h31
M  ZZC  39 h51
M  ZZC  40 h52
M  ZZC  41 h53
M  ZZC  42 h61
M  ZZC  43 h62
M  ZZC  44 h63
M  ZZC  45 h71
M  ZZC  46 h72
M  ZZC  47 h73
M  ZZC  48 h91
M  ZZC  49 h02
M  ZZC  50 h111
M  ZZC  51 h112
M  ZZC  52 h131
M  ZZC  53 h141
M  ZZC  54 h181
M  ZZC  55 h182
M  ZZC  56 h183
M  ZZC  57 h191
M  ZZC  58 h201
M  ZZC  59 h211
M  ZZC  60 h221
M  ZZC  61 h222
M  ZZC  62 h231
M  ZZC  63 h41
M  ZZC  64 h241
M  ZZC  65 h242
M  ZZM   1 1
M  ZZI   1 111
M  ZZM   2 3
M  ZZI   2 121
M  ZZM   3 7
M  ZZI   3 81
M  ZZM   4 10
M  ZZI   4 211
M  ZZM   5 1
M  ZZI   5 113
M  ZZM   6 1
M  ZZI   6 110
M  ZZM   7 1
M  ZZI   7 111
M  ZZM   8 1
M  ZZI   8 111
M  ZZM   9 1
M  ZZI   9 111
M  ZZM  10 3
M  ZZI  10 121
M  ZZM  11 7
M  ZZI  11 81
M  ZZM  12 10
M  ZZI  12 192
M  ZZM  13 1
M  ZZI  13 113
M  ZZM  14 3
M  ZZI  14 121
M  ZZM  15 7
M  ZZI  15 81
M  ZZM  16 10
M  ZZI  16 211
M  ZZM  17 1
M  ZZI  17 112
M  ZZM  18 37
M  ZZI  18 124
M  ZZM  19 37
M  ZZI  19 125
M  ZZM  20 37
M  ZZI  20 125
M  ZZM  21 37
M  ZZI  21 124
M  ZZM  22 63
M  ZZI  22 104
M  ZZM  23 64
M  ZZI  23 105
M  ZZM  24 1
M  ZZI  24 111
M  ZZM  25 66
M  ZZI  25 222
M  ZZM  26 63
M  ZZI  26 104
M  ZZM  27 44
M  ZZI  27 248
M  ZZM  28 37
M  ZZI  28 125
M  ZZM  29 37
M  ZZI  29 125
M  ZZM  30 1
M  ZZI  30 112
M  ZZM  31 1
M  ZZI  31 113
M  ZZM  32 6
M  ZZI  32 60
M  ZZM  33 1
M  ZZI  33 112
M  ZZM  34 5
M  ZZI  34 1
M  ZZM  35 5
M  ZZI  35 1
M  ZZM  36 5
M  ZZI  36 1
M  ZZM  37 28
M  ZZI  37 11
M  ZZM  38 5
M  ZZI  38 1
M  ZZM  39 5
M  ZZI  39 1
M  ZZM  40 5
M  ZZI  40 1
M  ZZM  41 5
M  ZZI  41 1
M  ZZM  42 5
M  ZZI  42 1
M  ZZM  43 5
M  ZZI  43 1
M  ZZM  44 5
M  ZZI  44 1
M  ZZM  45 5
M  ZZI  45 1
M  ZZM  46 5
M  ZZI  46 1
M  ZZM  47 5
M  ZZI  47 1
M  ZZM  48 5
M  ZZI  48 1
M  ZZM  49 28
M  ZZI  49 11
M  ZZM  50 5
M  ZZI  50 1
M  ZZM  51 5
M  ZZI  51 1
M  ZZM  52 5
M  ZZI  52 1
M  ZZM  53 5
M  ZZI  53 1
M  ZZM  54 5
M  ZZI  54 1
M  ZZM  55 5
M  ZZI  55 1
M  ZZM  56 5
M  ZZI  56 1
M  ZZM  57 5
M  ZZI  57 1
M  ZZM  58 5
M  ZZI  58 1
M  ZZM  59 5
M  ZZI  59 1
M  ZZM  60 5
M  ZZI  60 1
M  ZZM  61 5
M  ZZI  61 1
M  ZZM  62 5
M  ZZI  62 1
M  ZZM  63 21
M  ZZI  63 20
M  ZZM  64 5
M  ZZI  64 1
M  ZZM  65 5
M  ZZI  65 1
M  END
> <IX>
1

> <NAME>
VHL_6ZWP_1.pdb

> <Score>
-23.98466

> <Natom>
65

> <Nflex>
8

> <Hbond>
-7.822744

> <Hphob>
-6.459228

> <VwInt>
-30.219448

> <Dsolv>
21.367284

> <SolEl>
10.395688

> <Eintl>
4.445659

> <RecConf>
ND

> <projPath>
VHL_maps/

> <NAME_>
VHL_6ZWP_1.pdb

$$$$
