VHL_4QNQ_7.pdb
  MOLSOFT 04032206393D

 68 70  0  0  1  0  0  0  0  0999 V2000
   18.0743   -6.7994   -5.1319 C   0  0  0  0  0  0  0  0  0  0  0  0
   16.8809   -5.8927   -5.0123 C   0  0  0  0  0  0  0  0  0  0  0  0
   15.7997   -6.2161   -5.4722 O   0  0  0  0  0  0  0  0  0  0  0  0
   17.1398   -4.7280   -4.3181 N   0  0  0  0  0  0  0  0  0  0  0  0
   16.1613   -3.6551   -4.0774 C   0  0  1  0  0  0  0  0  0  0  0  0
   15.8559   -3.4810   -2.5604 C   0  0  0  0  0  0  0  0  0  0  0  0
   17.0887   -3.0355   -1.7611 C   0  0  0  0  0  0  0  0  0  0  0  0
   14.7445   -2.4576   -2.3006 C   0  0  0  0  0  0  0  0  0  0  0  0
   15.3568   -4.8250   -2.0156 C   0  0  0  0  0  0  0  0  0  0  0  0
   16.7560   -2.4293   -4.7986 C   0  0  0  0  0  0  0  0  0  0  0  0
   17.9637   -2.2243   -4.7885 O   0  0  0  0  0  0  0  0  0  0  0  0
   15.8914   -1.5788   -5.4925 N   0  0  0  0  0  0  0  0  0  0  0  0
   16.4206   -0.6186   -6.4481 C   0  0  2  0  0  0  0  0  0  0  0  0
   16.9151    0.6608   -5.7698 C   0  0  0  0  0  0  0  0  0  0  0  0
   16.5273    1.0182   -4.6657 O   0  0  0  0  0  0  0  0  0  0  0  0
   17.8083    1.3782   -6.5491 N   0  0  0  0  0  0  0  0  0  0  0  0
   18.4186    2.6265   -6.1108 C   0  0  1  0  0  0  0  0  0  0  0  0
   19.7976    2.7893   -6.7554 C   0  0  0  0  0  0  0  0  0  0  0  0
   17.4933    3.8101   -6.3485 C   0  0  0  0  0  0  0  0  0  0  0  0
   16.5348    4.1411   -5.3919 C   0  0  0  0  0  0  0  0  0  0  0  0
   15.6546    5.1919   -5.5796 C   0  0  0  0  0  0  0  0  0  0  0  0
   15.7064    5.9580   -6.7362 C   0  0  0  0  0  0  0  0  0  0  0  0
   14.7753    7.0538   -6.9560 C   0  0  0  0  0  0  0  0  0  0  0  0
   13.8280    7.2335   -7.9525 C   0  0  0  0  0  0  0  0  0  0  0  0
   13.5061    6.2848   -9.0399 C   0  0  0  0  0  0  0  0  0  0  0  0
   13.1343    8.4248   -7.8929 N   0  0  0  0  0  0  0  0  0  0  0  0
   13.5470    9.1219   -6.8579 C   0  0  0  0  0  0  0  0  0  0  0  0
   14.7589    8.4056   -5.8938 S   0  0  0  0  0  0  0  0  0  0  0  0
   16.6608    5.6429   -7.6953 C   0  0  0  0  0  0  0  0  0  0  0  0
   17.5393    4.5897   -7.5047 C   0  0  0  0  0  0  0  0  0  0  0  0
   15.2603   -0.3603   -7.3961 C   0  0  0  0  0  0  0  0  0  0  0  0
   14.0289   -0.5133   -6.5191 C   0  0  1  0  0  0  0  0  0  0  0  0
   12.9291   -1.0025   -7.2844 O   0  0  0  0  0  0  0  0  0  0  0  0
   14.4413   -1.5249   -5.4589 C   0  0  0  0  0  0  0  0  0  0  0  0
   18.9831   -6.2224   -5.3290 H   0  0  0  0  0  0  0  0  0  0  0  0
   17.9204   -7.4964   -5.9612 H   0  0  0  0  0  0  0  0  0  0  0  0
   18.1856   -7.3668   -4.2054 H   0  0  0  0  0  0  0  0  0  0  0  0
   18.1012   -4.5520   -4.0468 H   0  0  0  0  0  0  0  0  0  0  0  0
   15.2369   -3.9444   -4.5750 H   0  0  0  0  0  0  0  0  0  0  0  0
   16.8681   -2.9706   -0.6907 H   0  0  0  0  0  0  0  0  0  0  0  0
   17.4449   -2.0503   -2.0777 H   0  0  0  0  0  0  0  0  0  0  0  0
   17.9162   -3.7333   -1.8725 H   0  0  0  0  0  0  0  0  0  0  0  0
   15.0576   -1.4448   -2.5683 H   0  0  0  0  0  0  0  0  0  0  0  0
   14.4707   -2.4261   -1.2408 H   0  0  0  0  0  0  0  0  0  0  0  0
   13.8344   -2.7070   -2.8550 H   0  0  0  0  0  0  0  0  0  0  0  0
   15.0739   -4.7417   -0.9640 H   0  0  0  0  0  0  0  0  0  0  0  0
   16.1191   -5.6028   -2.0916 H   0  0  0  0  0  0  0  0  0  0  0  0
   14.4778   -5.1792   -2.5636 H   0  0  0  0  0  0  0  0  0  0  0  0
   17.2634   -1.0645   -6.9810 H   0  0  0  0  0  0  0  0  0  0  0  0
   18.1024    0.9858   -7.4385 H   0  0  0  0  0  0  0  0  0  0  0  0
   18.5849    2.5421   -5.0305 H   0  0  0  0  0  0  0  0  0  0  0  0
   20.2879    3.7010   -6.4081 H   0  0  0  0  0  0  0  0  0  0  0  0
   19.7249    2.8404   -7.8463 H   0  0  0  0  0  0  0  0  0  0  0  0
   20.4751    1.9704   -6.5017 H   0  0  0  0  0  0  0  0  0  0  0  0
   16.4607    3.5660   -4.4736 H   0  0  0  0  0  0  0  0  0  0  0  0
   14.9143    5.4007   -4.8125 H   0  0  0  0  0  0  0  0  0  0  0  0
   14.2864    6.2973   -9.8045 H   0  0  0  0  0  0  0  0  0  0  0  0
   12.5600    6.5467   -9.5154 H   0  0  0  0  0  0  0  0  0  0  0  0
   13.4111    5.2634   -8.6594 H   0  0  0  0  0  0  0  0  0  0  0  0
   13.1486   10.0966   -6.6187 H   0  0  0  0  0  0  0  0  0  0  0  0
   16.7336    6.2294   -8.6075 H   0  0  0  0  0  0  0  0  0  0  0  0
   18.2688    4.3923   -8.2815 H   0  0  0  0  0  0  0  0  0  0  0  0
   15.2976    0.6216   -7.8796 H   0  0  0  0  0  0  0  0  0  0  0  0
   15.2476   -1.1102   -8.1957 H   0  0  0  0  0  0  0  0  0  0  0  0
   13.7559    0.4486   -6.0693 H   0  0  0  0  0  0  0  0  0  0  0  0
   12.1074   -0.7330   -6.8371 H   0  0  0  0  0  0  0  0  0  0  0  0
   14.0116   -2.5159   -5.6048 H   0  0  0  0  0  0  0  0  0  0  0  0
   14.1192   -1.1641   -4.4826 H   0  0  0  0  0  0  0  0  0  0  0  0
  1 35  1  0  0  0  0
  1 36  1  0  0  0  0
  1 37  1  0  0  0  0
  1  2  1  0  0  0  0
  2  3  2  0  0  0  0
  2  4  1  0  0  0  0
  4 38  1  0  0  0  0
  5  4  1  0  0  0  0
  5 39  1  0  0  0  0
  5  6  1  0  0  0  0
  5 10  1  0  0  0  0
  6  7  1  0  0  0  0
  6  8  1  0  0  0  0
  6  9  1  0  0  0  0
  7 40  1  0  0  0  0
  7 41  1  0  0  0  0
  7 42  1  0  0  0  0
  8 43  1  0  0  0  0
  8 44  1  0  0  0  0
  8 45  1  0  0  0  0
  9 46  1  0  0  0  0
  9 47  1  0  0  0  0
  9 48  1  0  0  0  0
 10 11  2  0  0  0  0
 10 12  1  0  0  0  0
 12 34  1  0  0  0  0
 13 12  1  0  0  0  0
 13 31  1  0  0  0  0
 13 49  1  0  0  0  0
 13 14  1  0  0  0  0
 14 15  2  0  0  0  0
 14 16  1  0  0  0  0
 16 50  1  0  0  0  0
 17 16  1  0  0  0  0
 17 51  1  0  0  0  0
 17 18  1  0  0  0  0
 17 19  1  0  0  0  0
 18 52  1  0  0  0  0
 18 53  1  0  0  0  0
 18 54  1  0  0  0  0
 19 20  1  0  0  0  0
 19 30  2  0  0  0  0
 20 55  1  0  0  0  0
 20 21  2  0  0  0  0
 21 56  1  0  0  0  0
 21 22  1  0  0  0  0
 22 29  2  0  0  0  0
 22 23  1  0  0  0  0
 23 24  2  0  0  0  0
 23 28  1  0  0  0  0
 24 25  1  0  0  0  0
 24 26  1  0  0  0  0
 25 57  1  0  0  0  0
 25 58  1  0  0  0  0
 25 59  1  0  0  0  0
 26 27  2  0  0  0  0
 27 60  1  0  0  0  0
 27 28  1  0  0  0  0
 29 61  1  0  0  0  0
 29 30  1  0  0  0  0
 30 62  1  0  0  0  0
 32 31  1  0  0  0  0
 31 63  1  0  0  0  0
 31 64  1  0  0  0  0
 32 34  1  0  0  0  0
 32 65  1  0  0  0  0
 32 33  1  0  0  0  0
 33 66  1  0  0  0  0
 34 67  1  0  0  0  0
 34 68  1  0  0  0  0
M  ZZC   1 c1
M  ZZC   2 c2
M  ZZC   3 o1
M  ZZC   4 n1
M  ZZC   5 c3
M  ZZC   6 c4
M  ZZC   7 c5
M  ZZC   8 c6
M  ZZC   9 c7
M  ZZC  10 c8
M  ZZC  11 o2
M  ZZC  12 n2
M  ZZC  13 c9
M  ZZC  14 c10
M  ZZC  15 o3
M  ZZC  16 n3
M  ZZC  17 c11
M  ZZC  18 c12
M  ZZC  19 c13
M  ZZC  20 c14
M  ZZC  21 c15
M  ZZC  22 c16
M  ZZC  23 c17
M  ZZC  24 c18
M  ZZC  25 c19
M  ZZC  26 n4
M  ZZC  27 c20
M  ZZC  28 s1
M  ZZC  29 c21
M  ZZC  30 c22
M  ZZC  31 c23
M  ZZC  32 c24
M  ZZC  33 o4
M  ZZC  34 c25
M  ZZC  35 h11
M  ZZC  36 h12
M  ZZC  37 h13
M  ZZC  38 h01
M  ZZC  39 h31
M  ZZC  40 h51
M  ZZC  41 h52
M  ZZC  42 h53
M  ZZC  43 h61
M  ZZC  44 h62
M  ZZC  45 h63
M  ZZC  46 h71
M  ZZC  47 h72
M  ZZC  48 h73
M  ZZC  49 h91
M  ZZC  50 h02
M  ZZC  51 h111
M  ZZC  52 h121
M  ZZC  53 h122
M  ZZC  54 h123
M  ZZC  55 h141
M  ZZC  56 h151
M  ZZC  57 h191
M  ZZC  58 h192
M  ZZC  59 h193
M  ZZC  60 h201
M  ZZC  61 h211
M  ZZC  62 h221
M  ZZC  63 h231
M  ZZC  64 h232
M  ZZC  65 h241
M  ZZC  66 h41
M  ZZC  67 h251
M  ZZC  68 h252
M  ZZM   1 1
M  ZZI   1 111
M  ZZM   2 3
M  ZZI   2 121
M  ZZM   3 7
M  ZZI   3 81
M  ZZM   4 10
M  ZZI   4 211
M  ZZM   5 1
M  ZZI   5 113
M  ZZM   6 1
M  ZZI   6 110
M  ZZM   7 1
M  ZZI   7 111
M  ZZM   8 1
M  ZZI   8 111
M  ZZM   9 1
M  ZZI   9 111
M  ZZM  10 3
M  ZZI  10 121
M  ZZM  11 7
M  ZZI  11 81
M  ZZM  12 10
M  ZZI  12 192
M  ZZM  13 1
M  ZZI  13 113
M  ZZM  14 3
M  ZZI  14 121
M  ZZM  15 7
M  ZZI  15 81
M  ZZM  16 10
M  ZZI  16 211
M  ZZM  17 1
M  ZZI  17 113
M  ZZM  18 1
M  ZZI  18 111
M  ZZM  19 37
M  ZZI  19 124
M  ZZM  20 37
M  ZZI  20 125
M  ZZM  21 37
M  ZZI  21 125
M  ZZM  22 37
M  ZZI  22 124
M  ZZM  23 63
M  ZZI  23 104
M  ZZM  24 64
M  ZZI  24 105
M  ZZM  25 1
M  ZZI  25 111
M  ZZM  26 66
M  ZZI  26 222
M  ZZM  27 63
M  ZZI  27 104
M  ZZM  28 44
M  ZZI  28 248
M  ZZM  29 37
M  ZZI  29 125
M  ZZM  30 37
M  ZZI  30 125
M  ZZM  31 1
M  ZZI  31 112
M  ZZM  32 1
M  ZZI  32 113
M  ZZM  33 6
M  ZZI  33 60
M  ZZM  34 1
M  ZZI  34 112
M  ZZM  35 5
M  ZZI  35 1
M  ZZM  36 5
M  ZZI  36 1
M  ZZM  37 5
M  ZZI  37 1
M  ZZM  38 28
M  ZZI  38 11
M  ZZM  39 5
M  ZZI  39 1
M  ZZM  40 5
M  ZZI  40 1
M  ZZM  41 5
M  ZZI  41 1
M  ZZM  42 5
M  ZZI  42 1
M  ZZM  43 5
M  ZZI  43 1
M  ZZM  44 5
M  ZZI  44 1
M  ZZM  45 5
M  ZZI  45 1
M  ZZM  46 5
M  ZZI  46 1
M  ZZM  47 5
M  ZZI  47 1
M  ZZM  48 5
M  ZZI  48 1
M  ZZM  49 5
M  ZZI  49 1
M  ZZM  50 28
M  ZZI  50 11
M  ZZM  51 5
M  ZZI  51 1
M  ZZM  52 5
M  ZZI  52 1
M  ZZM  53 5
M  ZZI  53 1
M  ZZM  54 5
M  ZZI  54 1
M  ZZM  55 5
M  ZZI  55 1
M  ZZM  56 5
M  ZZI  56 1
M  ZZM  57 5
M  ZZI  57 1
M  ZZM  58 5
M  ZZI  58 1
M  ZZM  59 5
M  ZZI  59 1
M  ZZM  60 5
M  ZZI  60 1
M  ZZM  61 5
M  ZZI  61 1
M  ZZM  62 5
M  ZZI  62 1
M  ZZM  63 5
M  ZZI  63 1
M  ZZM  64 5
M  ZZI  64 1
M  ZZM  65 5
M  ZZI  65 1
M  ZZM  66 21
M  ZZI  66 20
M  ZZM  67 5
M  ZZI  67 1
M  ZZM  68 5
M  ZZI  68 1
M  END
> <IX>
1

> <NAME>
VHL_4QNQ_7.pdb

> <Score>
-3.415558

> <Natom>
68

> <Nflex>
8

> <Hbond>
-5.03526

> <Hphob>
-6.755011

> <VwInt>
-28.178835

> <Dsolv>
22.773637

> <SolEl>
23.125926

> <Eintl>
8.14167

> <RecConf>
ND

> <projPath>
VHL_maps/

> <NAME_>
VHL_4QNQ_7.pdb

$$$$
