VHL_5G0J_9.pdb
  MOLSOFT 04032206413D

 65 67  0  0  1  0  0  0  0  0999 V2000
   18.0864   -7.0548   -5.1196 C   0  0  0  0  0  0  0  0  0  0  0  0
   16.9424   -6.0817   -5.0825 C   0  0  0  0  0  0  0  0  0  0  0  0
   15.8705   -6.3568   -5.5937 O   0  0  0  0  0  0  0  0  0  0  0  0
   17.2261   -4.9198   -4.3934 N   0  0  0  0  0  0  0  0  0  0  0  0
   16.2830   -3.8045   -4.2327 C   0  0  1  0  0  0  0  0  0  0  0  0
   15.8675   -3.5755   -2.7472 C   0  0  0  0  0  0  0  0  0  0  0  0
   17.0345   -3.0745   -1.8840 C   0  0  0  0  0  0  0  0  0  0  0  0
   14.7269   -2.5540   -2.6224 C   0  0  0  0  0  0  0  0  0  0  0  0
   15.3480   -4.8970   -2.1664 C   0  0  0  0  0  0  0  0  0  0  0  0
   16.9652   -2.5976   -4.9018 C   0  0  0  0  0  0  0  0  0  0  0  0
   18.1658   -2.3976   -4.7748 O   0  0  0  0  0  0  0  0  0  0  0  0
   16.1742   -1.7077   -5.6257 N   0  0  0  0  0  0  0  0  0  0  0  0
   16.7748   -0.5872   -6.3374 C   0  0  2  0  0  0  0  0  0  0  0  0
   17.3125    0.4896   -5.3978 C   0  0  0  0  0  0  0  0  0  0  0  0
   16.8575    0.6845   -4.2786 O   0  0  0  0  0  0  0  0  0  0  0  0
   18.2832    1.2783   -5.9915 N   0  0  0  0  0  0  0  0  0  0  0  0
   18.6524    2.5729   -5.4540 C   0  0  0  0  0  0  0  0  0  0  0  0
   17.6613    3.5923   -5.9485 C   0  0  0  0  0  0  0  0  0  0  0  0
   16.4153    3.6881   -5.3381 C   0  0  0  0  0  0  0  0  0  0  0  0
   15.3931    4.3901   -5.9374 C   0  0  0  0  0  0  0  0  0  0  0  0
   15.6076    5.0441   -7.1404 C   0  0  0  0  0  0  0  0  0  0  0  0
   14.4719    5.6047   -7.8391 C   0  0  0  0  0  0  0  0  0  0  0  0
   13.4471    4.9493   -8.5058 C   0  0  0  0  0  0  0  0  0  0  0  0
   13.3276    3.4905   -8.7426 C   0  0  0  0  0  0  0  0  0  0  0  0
   12.4383    5.7691   -8.9565 N   0  0  0  0  0  0  0  0  0  0  0  0
   12.7463    7.0189   -8.6876 C   0  0  0  0  0  0  0  0  0  0  0  0
   14.2185    7.2979   -7.8767 S   0  0  0  0  0  0  0  0  0  0  0  0
   16.8853    5.0710   -7.6860 C   0  0  0  0  0  0  0  0  0  0  0  0
   17.9030    4.3341   -7.1018 C   0  0  0  0  0  0  0  0  0  0  0  0
   15.6510   -0.0256   -7.2119 C   0  0  0  0  0  0  0  0  0  0  0  0
   14.3925   -0.4698   -6.4856 C   0  0  1  0  0  0  0  0  0  0  0  0
   13.2602   -0.5414   -7.3472 O   0  0  0  0  0  0  0  0  0  0  0  0
   14.7878   -1.8467   -6.0006 C   0  0  0  0  0  0  0  0  0  0  0  0
   19.0423   -6.5328   -5.2271 H   0  0  0  0  0  0  0  0  0  0  0  0
   17.9628   -7.7280   -5.9728 H   0  0  0  0  0  0  0  0  0  0  0  0
   18.0819   -7.6401   -4.1976 H   0  0  0  0  0  0  0  0  0  0  0  0
   18.1759   -4.7841   -4.0650 H   0  0  0  0  0  0  0  0  0  0  0  0
   15.3874   -4.0616   -4.7907 H   0  0  0  0  0  0  0  0  0  0  0  0
   16.7477   -2.9980   -0.8302 H   0  0  0  0  0  0  0  0  0  0  0  0
   17.3766   -2.0827   -2.1955 H   0  0  0  0  0  0  0  0  0  0  0  0
   17.8892   -3.7469   -1.9333 H   0  0  0  0  0  0  0  0  0  0  0  0
   15.0204   -1.5780   -3.0228 H   0  0  0  0  0  0  0  0  0  0  0  0
   14.4474   -2.3925   -1.5771 H   0  0  0  0  0  0  0  0  0  0  0  0
   13.8344   -2.8643   -3.1730 H   0  0  0  0  0  0  0  0  0  0  0  0
   15.0151   -4.7765   -1.1307 H   0  0  0  0  0  0  0  0  0  0  0  0
   16.1263   -5.6646   -2.1721 H   0  0  0  0  0  0  0  0  0  0  0  0
   14.5019   -5.2862   -2.7360 H   0  0  0  0  0  0  0  0  0  0  0  0
   17.5934   -0.9558   -6.9538 H   0  0  0  0  0  0  0  0  0  0  0  0
   18.6584    1.0100   -6.8968 H   0  0  0  0  0  0  0  0  0  0  0  0
   18.6626    2.5359   -4.3590 H   0  0  0  0  0  0  0  0  0  0  0  0
   19.6667    2.8057   -5.7946 H   0  0  0  0  0  0  0  0  0  0  0  0
   16.2048    3.1433   -4.4225 H   0  0  0  0  0  0  0  0  0  0  0  0
   14.4066    4.3821   -5.4814 H   0  0  0  0  0  0  0  0  0  0  0  0
   12.4341    3.2667   -9.3322 H   0  0  0  0  0  0  0  0  0  0  0  0
   13.2435    2.9406   -7.8014 H   0  0  0  0  0  0  0  0  0  0  0  0
   14.1990    3.1059   -9.2791 H   0  0  0  0  0  0  0  0  0  0  0  0
   12.1074    7.8425   -8.9511 H   0  0  0  0  0  0  0  0  0  0  0  0
   17.0803    5.6185   -8.6038 H   0  0  0  0  0  0  0  0  0  0  0  0
   18.8740    4.2968   -7.5870 H   0  0  0  0  0  0  0  0  0  0  0  0
   15.6839    1.0602   -7.3499 H   0  0  0  0  0  0  0  0  0  0  0  0
   15.6840   -0.4704   -8.2139 H   0  0  0  0  0  0  0  0  0  0  0  0
   14.1643    0.1906   -5.6404 H   0  0  0  0  0  0  0  0  0  0  0  0
   12.9816    0.3694   -7.5498 H   0  0  0  0  0  0  0  0  0  0  0  0
   14.7549   -2.5672   -6.8225 H   0  0  0  0  0  0  0  0  0  0  0  0
   14.1504   -2.2171   -5.1986 H   0  0  0  0  0  0  0  0  0  0  0  0
  1 34  1  0  0  0  0
  1 35  1  0  0  0  0
  1 36  1  0  0  0  0
  1  2  1  0  0  0  0
  2  3  2  0  0  0  0
  2  4  1  0  0  0  0
  4 37  1  0  0  0  0
  5  4  1  0  0  0  0
  5 38  1  0  0  0  0
  5  6  1  0  0  0  0
  5 10  1  0  0  0  0
  6  7  1  0  0  0  0
  6  8  1  0  0  0  0
  6  9  1  0  0  0  0
  7 39  1  0  0  0  0
  7 40  1  0  0  0  0
  7 41  1  0  0  0  0
  8 42  1  0  0  0  0
  8 43  1  0  0  0  0
  8 44  1  0  0  0  0
  9 45  1  0  0  0  0
  9 46  1  0  0  0  0
  9 47  1  0  0  0  0
 10 11  2  0  0  0  0
 10 12  1  0  0  0  0
 12 33  1  0  0  0  0
 13 12  1  0  0  0  0
 13 30  1  0  0  0  0
 13 48  1  0  0  0  0
 13 14  1  0  0  0  0
 14 15  2  0  0  0  0
 14 16  1  0  0  0  0
 16 49  1  0  0  0  0
 16 17  1  0  0  0  0
 17 50  1  0  0  0  0
 17 51  1  0  0  0  0
 17 18  1  0  0  0  0
 18 19  1  0  0  0  0
 18 29  2  0  0  0  0
 19 52  1  0  0  0  0
 19 20  2  0  0  0  0
 20 53  1  0  0  0  0
 20 21  1  0  0  0  0
 21 28  2  0  0  0  0
 21 22  1  0  0  0  0
 22 23  2  0  0  0  0
 22 27  1  0  0  0  0
 23 24  1  0  0  0  0
 23 25  1  0  0  0  0
 24 54  1  0  0  0  0
 24 55  1  0  0  0  0
 24 56  1  0  0  0  0
 25 26  2  0  0  0  0
 26 57  1  0  0  0  0
 26 27  1  0  0  0  0
 28 58  1  0  0  0  0
 28 29  1  0  0  0  0
 29 59  1  0  0  0  0
 31 30  1  0  0  0  0
 30 60  1  0  0  0  0
 30 61  1  0  0  0  0
 31 33  1  0  0  0  0
 31 62  1  0  0  0  0
 31 32  1  0  0  0  0
 32 63  1  0  0  0  0
 33 64  1  0  0  0  0
 33 65  1  0  0  0  0
M  ZZC   1 c1
M  ZZC   2 c2
M  ZZC   3 o1
M  ZZC   4 n1
M  ZZC   5 c3
M  ZZC   6 c4
M  ZZC   7 c5
M  ZZC   8 c6
M  ZZC   9 c7
M  ZZC  10 c8
M  ZZC  11 o2
M  ZZC  12 n2
M  ZZC  13 c9
M  ZZC  14 c10
M  ZZC  15 o3
M  ZZC  16 n3
M  ZZC  17 c11
M  ZZC  18 c12
M  ZZC  19 c13
M  ZZC  20 c14
M  ZZC  21 c15
M  ZZC  22 c16
M  ZZC  23 c17
M  ZZC  24 c18
M  ZZC  25 n4
M  ZZC  26 c19
M  ZZC  27 s1
M  ZZC  28 c20
M  ZZC  29 c21
M  ZZC  30 c22
M  ZZC  31 c23
M  ZZC  32 o4
M  ZZC  33 c24
M  ZZC  34 h11
M  ZZC  35 h12
M  ZZC  36 h13
M  ZZC  37 h01
M  ZZC  38 h31
M  ZZC  39 h51
M  ZZC  40 h52
M  ZZC  41 h53
M  ZZC  42 h61
M  ZZC  43 h62
M  ZZC  44 h63
M  ZZC  45 h71
M  ZZC  46 h72
M  ZZC  47 h73
M  ZZC  48 h91
M  ZZC  49 h02
M  ZZC  50 h111
M  ZZC  51 h112
M  ZZC  52 h131
M  ZZC  53 h141
M  ZZC  54 h181
M  ZZC  55 h182
M  ZZC  56 h183
M  ZZC  57 h191
M  ZZC  58 h201
M  ZZC  59 h211
M  ZZC  60 h221
M  ZZC  61 h222
M  ZZC  62 h231
M  ZZC  63 h41
M  ZZC  64 h241
M  ZZC  65 h242
M  ZZM   1 1
M  ZZI   1 111
M  ZZM   2 3
M  ZZI   2 121
M  ZZM   3 7
M  ZZI   3 81
M  ZZM   4 10
M  ZZI   4 211
M  ZZM   5 1
M  ZZI   5 113
M  ZZM   6 1
M  ZZI   6 110
M  ZZM   7 1
M  ZZI   7 111
M  ZZM   8 1
M  ZZI   8 111
M  ZZM   9 1
M  ZZI   9 111
M  ZZM  10 3
M  ZZI  10 121
M  ZZM  11 7
M  ZZI  11 81
M  ZZM  12 10
M  ZZI  12 192
M  ZZM  13 1
M  ZZI  13 113
M  ZZM  14 3
M  ZZI  14 121
M  ZZM  15 7
M  ZZI  15 81
M  ZZM  16 10
M  ZZI  16 211
M  ZZM  17 1
M  ZZI  17 112
M  ZZM  18 37
M  ZZI  18 124
M  ZZM  19 37
M  ZZI  19 125
M  ZZM  20 37
M  ZZI  20 125
M  ZZM  21 37
M  ZZI  21 124
M  ZZM  22 63
M  ZZI  22 104
M  ZZM  23 64
M  ZZI  23 105
M  ZZM  24 1
M  ZZI  24 111
M  ZZM  25 66
M  ZZI  25 222
M  ZZM  26 63
M  ZZI  26 104
M  ZZM  27 44
M  ZZI  27 248
M  ZZM  28 37
M  ZZI  28 125
M  ZZM  29 37
M  ZZI  29 125
M  ZZM  30 1
M  ZZI  30 112
M  ZZM  31 1
M  ZZI  31 113
M  ZZM  32 6
M  ZZI  32 60
M  ZZM  33 1
M  ZZI  33 112
M  ZZM  34 5
M  ZZI  34 1
M  ZZM  35 5
M  ZZI  35 1
M  ZZM  36 5
M  ZZI  36 1
M  ZZM  37 28
M  ZZI  37 11
M  ZZM  38 5
M  ZZI  38 1
M  ZZM  39 5
M  ZZI  39 1
M  ZZM  40 5
M  ZZI  40 1
M  ZZM  41 5
M  ZZI  41 1
M  ZZM  42 5
M  ZZI  42 1
M  ZZM  43 5
M  ZZI  43 1
M  ZZM  44 5
M  ZZI  44 1
M  ZZM  45 5
M  ZZI  45 1
M  ZZM  46 5
M  ZZI  46 1
M  ZZM  47 5
M  ZZI  47 1
M  ZZM  48 5
M  ZZI  48 1
M  ZZM  49 28
M  ZZI  49 11
M  ZZM  50 5
M  ZZI  50 1
M  ZZM  51 5
M  ZZI  51 1
M  ZZM  52 5
M  ZZI  52 1
M  ZZM  53 5
M  ZZI  53 1
M  ZZM  54 5
M  ZZI  54 1
M  ZZM  55 5
M  ZZI  55 1
M  ZZM  56 5
M  ZZI  56 1
M  ZZM  57 5
M  ZZI  57 1
M  ZZM  58 5
M  ZZI  58 1
M  ZZM  59 5
M  ZZI  59 1
M  ZZM  60 5
M  ZZI  60 1
M  ZZM  61 5
M  ZZI  61 1
M  ZZM  62 5
M  ZZI  62 1
M  ZZM  63 21
M  ZZI  63 20
M  ZZM  64 5
M  ZZI  64 1
M  ZZM  65 5
M  ZZI  65 1
M  END
> <IX>
1

> <NAME>
VHL_5G0J_9.pdb

> <Score>
-7.746297

> <Natom>
65

> <Nflex>
8

> <Hbond>
-6.037171

> <Hphob>
-6.82212

> <VwInt>
-28.015011

> <Dsolv>
21.561166

> <SolEl>
22.577204

> <Eintl>
7.069582

> <RecConf>
ND

> <projPath>
VHL_maps/

> <NAME_>
VHL_5G0J_9.pdb

$$$$
