VHL_6MX8_5.pdb
  MOLSOFT 04032206433D

 65 67  0  0  1  0  0  0  0  0999 V2000
   18.1153   -6.6629   -5.1213 C   0  0  0  0  0  0  0  0  0  0  0  0
   16.9015   -5.7875   -4.9696 C   0  0  0  0  0  0  0  0  0  0  0  0
   15.8162   -6.1456   -5.3932 O   0  0  0  0  0  0  0  0  0  0  0  0
   17.1445   -4.6093   -4.2911 N   0  0  0  0  0  0  0  0  0  0  0  0
   16.1349   -3.5722   -4.0211 C   0  0  1  0  0  0  0  0  0  0  0  0
   15.8891   -3.3861   -2.4944 C   0  0  0  0  0  0  0  0  0  0  0  0
   14.7827   -2.3686   -2.1925 C   0  0  0  0  0  0  0  0  0  0  0  0
   17.1520   -2.9264   -1.7518 C   0  0  0  0  0  0  0  0  0  0  0  0
   15.4233   -4.7288   -1.9185 C   0  0  0  0  0  0  0  0  0  0  0  0
   16.6290   -2.3292   -4.7913 C   0  0  0  0  0  0  0  0  0  0  0  0
   17.8236   -2.0602   -4.8439 O   0  0  0  0  0  0  0  0  0  0  0  0
   15.6771   -1.5562   -5.4639 N   0  0  0  0  0  0  0  0  0  0  0  0
   16.0707   -0.6435   -6.5269 C   0  0  2  0  0  0  0  0  0  0  0  0
   16.4530    0.7483   -6.0160 C   0  0  0  0  0  0  0  0  0  0  0  0
   15.9348    1.2645   -5.0352 O   0  0  0  0  0  0  0  0  0  0  0  0
   17.3800    1.3860   -6.8195 N   0  0  0  0  0  0  0  0  0  0  0  0
   17.8300    2.7418   -6.5503 C   0  0  0  0  0  0  0  0  0  0  0  0
   19.2410    3.0208   -7.0110 C   0  0  0  0  0  0  0  0  0  0  0  0
   20.1827    2.0066   -7.1289 C   0  0  0  0  0  0  0  0  0  0  0  0
   21.4835    2.2816   -7.4966 C   0  0  0  0  0  0  0  0  0  0  0  0
   21.8979    3.5790   -7.7507 C   0  0  0  0  0  0  0  0  0  0  0  0
   23.2835    3.8391   -8.1069 C   0  0  0  0  0  0  0  0  0  0  0  0
   24.3495    4.2598   -7.3246 C   0  0  0  0  0  0  0  0  0  0  0  0
   24.3156    4.5929   -5.8826 C   0  0  0  0  0  0  0  0  0  0  0  0
   25.5606    4.3392   -7.9825 N   0  0  0  0  0  0  0  0  0  0  0  0
   25.4017    4.0053   -9.2435 C   0  0  0  0  0  0  0  0  0  0  0  0
   23.8172    3.5877   -9.7205 S   0  0  0  0  0  0  0  0  0  0  0  0
   20.9673    4.6035   -7.6311 C   0  0  0  0  0  0  0  0  0  0  0  0
   19.6573    4.3260   -7.2651 C   0  0  0  0  0  0  0  0  0  0  0  0
   14.8351   -0.5717   -7.4099 C   0  0  0  0  0  0  0  0  0  0  0  0
   13.6814   -0.6921   -6.4252 C   0  0  1  0  0  0  0  0  0  0  0  0
   12.5403   -1.3082   -7.0162 O   0  0  0  0  0  0  0  0  0  0  0  0
   14.2309   -1.5816   -5.3229 C   0  0  0  0  0  0  0  0  0  0  0  0
   19.0241   -6.0629   -5.2273 H   0  0  0  0  0  0  0  0  0  0  0  0
   18.0065   -7.2842   -6.0154 H   0  0  0  0  0  0  0  0  0  0  0  0
   18.1995   -7.3093   -4.2445 H   0  0  0  0  0  0  0  0  0  0  0  0
   18.1053   -4.4020   -4.0432 H   0  0  0  0  0  0  0  0  0  0  0  0
   15.2040   -3.9165   -4.4717 H   0  0  0  0  0  0  0  0  0  0  0  0
   15.0661   -1.3593   -2.5033 H   0  0  0  0  0  0  0  0  0  0  0  0
   14.5728   -2.3141   -1.1192 H   0  0  0  0  0  0  0  0  0  0  0  0
   13.8437   -2.6424   -2.6828 H   0  0  0  0  0  0  0  0  0  0  0  0
   16.9726   -2.8415   -0.6751 H   0  0  0  0  0  0  0  0  0  0  0  0
   17.4965   -1.9483   -2.1011 H   0  0  0  0  0  0  0  0  0  0  0  0
   17.9737   -3.6286   -1.8795 H   0  0  0  0  0  0  0  0  0  0  0  0
   15.1680   -4.6330   -0.8605 H   0  0  0  0  0  0  0  0  0  0  0  0
   16.1927   -5.4978   -2.0084 H   0  0  0  0  0  0  0  0  0  0  0  0
   14.5328   -5.1008   -2.4352 H   0  0  0  0  0  0  0  0  0  0  0  0
   16.9191   -1.0658   -7.0753 H   0  0  0  0  0  0  0  0  0  0  0  0
   17.7704    0.8889   -7.6152 H   0  0  0  0  0  0  0  0  0  0  0  0
   17.1299    3.4048   -7.0702 H   0  0  0  0  0  0  0  0  0  0  0  0
   17.7525    2.9433   -5.4766 H   0  0  0  0  0  0  0  0  0  0  0  0
   19.9124    0.9759   -6.9325 H   0  0  0  0  0  0  0  0  0  0  0  0
   22.1810    1.4579   -7.5848 H   0  0  0  0  0  0  0  0  0  0  0  0
   25.2708    5.0117   -5.5530 H   0  0  0  0  0  0  0  0  0  0  0  0
   24.1219    3.6983   -5.2860 H   0  0  0  0  0  0  0  0  0  0  0  0
   23.5358    5.3290   -5.6674 H   0  0  0  0  0  0  0  0  0  0  0  0
   26.2217    3.9959   -9.9471 H   0  0  0  0  0  0  0  0  0  0  0  0
   21.2591    5.6323   -7.8209 H   0  0  0  0  0  0  0  0  0  0  0  0
   18.9547    5.1490   -7.1716 H   0  0  0  0  0  0  0  0  0  0  0  0
   14.7707    0.3436   -8.0078 H   0  0  0  0  0  0  0  0  0  0  0  0
   14.8240   -1.4169   -8.1067 H   0  0  0  0  0  0  0  0  0  0  0  0
   13.3882    0.2862   -6.0275 H   0  0  0  0  0  0  0  0  0  0  0  0
   12.1961   -0.7145   -7.7078 H   0  0  0  0  0  0  0  0  0  0  0  0
   13.8472   -2.6023   -5.3585 H   0  0  0  0  0  0  0  0  0  0  0  0
   13.9598   -1.1551   -4.3572 H   0  0  0  0  0  0  0  0  0  0  0  0
  1 34  1  0  0  0  0
  1 35  1  0  0  0  0
  1 36  1  0  0  0  0
  1  2  1  0  0  0  0
  2  3  2  0  0  0  0
  2  4  1  0  0  0  0
  4 37  1  0  0  0  0
  5  4  1  0  0  0  0
  5 38  1  0  0  0  0
  5  6  1  0  0  0  0
  5 10  1  0  0  0  0
  6  7  1  0  0  0  0
  6  8  1  0  0  0  0
  6  9  1  0  0  0  0
  7 39  1  0  0  0  0
  7 40  1  0  0  0  0
  7 41  1  0  0  0  0
  8 42  1  0  0  0  0
  8 43  1  0  0  0  0
  8 44  1  0  0  0  0
  9 45  1  0  0  0  0
  9 46  1  0  0  0  0
  9 47  1  0  0  0  0
 10 11  2  0  0  0  0
 10 12  1  0  0  0  0
 12 33  1  0  0  0  0
 13 12  1  0  0  0  0
 13 30  1  0  0  0  0
 13 48  1  0  0  0  0
 13 14  1  0  0  0  0
 14 15  2  0  0  0  0
 14 16  1  0  0  0  0
 16 49  1  0  0  0  0
 16 17  1  0  0  0  0
 17 50  1  0  0  0  0
 17 51  1  0  0  0  0
 17 18  1  0  0  0  0
 18 19  1  0  0  0  0
 18 29  2  0  0  0  0
 19 52  1  0  0  0  0
 19 20  2  0  0  0  0
 20 53  1  0  0  0  0
 20 21  1  0  0  0  0
 21 28  2  0  0  0  0
 21 22  1  0  0  0  0
 22 23  2  0  0  0  0
 22 27  1  0  0  0  0
 23 24  1  0  0  0  0
 23 25  1  0  0  0  0
 24 54  1  0  0  0  0
 24 55  1  0  0  0  0
 24 56  1  0  0  0  0
 25 26  2  0  0  0  0
 26 57  1  0  0  0  0
 26 27  1  0  0  0  0
 28 58  1  0  0  0  0
 28 29  1  0  0  0  0
 29 59  1  0  0  0  0
 31 30  1  0  0  0  0
 30 60  1  0  0  0  0
 30 61  1  0  0  0  0
 31 33  1  0  0  0  0
 31 62  1  0  0  0  0
 31 32  1  0  0  0  0
 32 63  1  0  0  0  0
 33 64  1  0  0  0  0
 33 65  1  0  0  0  0
M  ZZC   1 c1
M  ZZC   2 c2
M  ZZC   3 o1
M  ZZC   4 n1
M  ZZC   5 c3
M  ZZC   6 c4
M  ZZC   7 c5
M  ZZC   8 c6
M  ZZC   9 c7
M  ZZC  10 c8
M  ZZC  11 o2
M  ZZC  12 n2
M  ZZC  13 c9
M  ZZC  14 c10
M  ZZC  15 o3
M  ZZC  16 n3
M  ZZC  17 c11
M  ZZC  18 c12
M  ZZC  19 c13
M  ZZC  20 c14
M  ZZC  21 c15
M  ZZC  22 c16
M  ZZC  23 c17
M  ZZC  24 c18
M  ZZC  25 n4
M  ZZC  26 c19
M  ZZC  27 s1
M  ZZC  28 c20
M  ZZC  29 c21
M  ZZC  30 c22
M  ZZC  31 c23
M  ZZC  32 o4
M  ZZC  33 c24
M  ZZC  34 h11
M  ZZC  35 h12
M  ZZC  36 h13
M  ZZC  37 h01
M  ZZC  38 h31
M  ZZC  39 h51
M  ZZC  40 h52
M  ZZC  41 h53
M  ZZC  42 h61
M  ZZC  43 h62
M  ZZC  44 h63
M  ZZC  45 h71
M  ZZC  46 h72
M  ZZC  47 h73
M  ZZC  48 h91
M  ZZC  49 h02
M  ZZC  50 h111
M  ZZC  51 h112
M  ZZC  52 h131
M  ZZC  53 h141
M  ZZC  54 h181
M  ZZC  55 h182
M  ZZC  56 h183
M  ZZC  57 h191
M  ZZC  58 h201
M  ZZC  59 h211
M  ZZC  60 h221
M  ZZC  61 h222
M  ZZC  62 h231
M  ZZC  63 h41
M  ZZC  64 h241
M  ZZC  65 h242
M  ZZM   1 1
M  ZZI   1 111
M  ZZM   2 3
M  ZZI   2 121
M  ZZM   3 7
M  ZZI   3 81
M  ZZM   4 10
M  ZZI   4 211
M  ZZM   5 1
M  ZZI   5 113
M  ZZM   6 1
M  ZZI   6 110
M  ZZM   7 1
M  ZZI   7 111
M  ZZM   8 1
M  ZZI   8 111
M  ZZM   9 1
M  ZZI   9 111
M  ZZM  10 3
M  ZZI  10 121
M  ZZM  11 7
M  ZZI  11 81
M  ZZM  12 10
M  ZZI  12 192
M  ZZM  13 1
M  ZZI  13 113
M  ZZM  14 3
M  ZZI  14 121
M  ZZM  15 7
M  ZZI  15 81
M  ZZM  16 10
M  ZZI  16 211
M  ZZM  17 1
M  ZZI  17 112
M  ZZM  18 37
M  ZZI  18 124
M  ZZM  19 37
M  ZZI  19 125
M  ZZM  20 37
M  ZZI  20 125
M  ZZM  21 37
M  ZZI  21 124
M  ZZM  22 63
M  ZZI  22 104
M  ZZM  23 64
M  ZZI  23 105
M  ZZM  24 1
M  ZZI  24 111
M  ZZM  25 66
M  ZZI  25 222
M  ZZM  26 63
M  ZZI  26 104
M  ZZM  27 44
M  ZZI  27 248
M  ZZM  28 37
M  ZZI  28 125
M  ZZM  29 37
M  ZZI  29 125
M  ZZM  30 1
M  ZZI  30 112
M  ZZM  31 1
M  ZZI  31 113
M  ZZM  32 6
M  ZZI  32 60
M  ZZM  33 1
M  ZZI  33 112
M  ZZM  34 5
M  ZZI  34 1
M  ZZM  35 5
M  ZZI  35 1
M  ZZM  36 5
M  ZZI  36 1
M  ZZM  37 28
M  ZZI  37 11
M  ZZM  38 5
M  ZZI  38 1
M  ZZM  39 5
M  ZZI  39 1
M  ZZM  40 5
M  ZZI  40 1
M  ZZM  41 5
M  ZZI  41 1
M  ZZM  42 5
M  ZZI  42 1
M  ZZM  43 5
M  ZZI  43 1
M  ZZM  44 5
M  ZZI  44 1
M  ZZM  45 5
M  ZZI  45 1
M  ZZM  46 5
M  ZZI  46 1
M  ZZM  47 5
M  ZZI  47 1
M  ZZM  48 5
M  ZZI  48 1
M  ZZM  49 28
M  ZZI  49 11
M  ZZM  50 5
M  ZZI  50 1
M  ZZM  51 5
M  ZZI  51 1
M  ZZM  52 5
M  ZZI  52 1
M  ZZM  53 5
M  ZZI  53 1
M  ZZM  54 5
M  ZZI  54 1
M  ZZM  55 5
M  ZZI  55 1
M  ZZM  56 5
M  ZZI  56 1
M  ZZM  57 5
M  ZZI  57 1
M  ZZM  58 5
M  ZZI  58 1
M  ZZM  59 5
M  ZZI  59 1
M  ZZM  60 5
M  ZZI  60 1
M  ZZM  61 5
M  ZZI  61 1
M  ZZM  62 5
M  ZZI  62 1
M  ZZM  63 21
M  ZZI  63 20
M  ZZM  64 5
M  ZZI  64 1
M  ZZM  65 5
M  ZZI  65 1
M  END
> <IX>
1

> <NAME>
VHL_6MX8_5.pdb

> <Score>
-11.888593

> <Natom>
65

> <Nflex>
8

> <Hbond>
-4.960572

> <Hphob>
-6.500235

> <VwInt>
-28.169427

> <Dsolv>
16.519319

> <SolEl>
17.015159

> <Eintl>
7.944577

> <RecConf>
ND

> <projPath>
VHL_maps/

> <NAME_>
VHL_6MX8_5.pdb

$$$$
