VHL_3UE4_4.pdb
  MOLSOFT 04032206373D

 65 67  0  0  1  0  0  0  0  0999 V2000
   17.2844   -6.2435   -4.3710 C   0  0  0  0  0  0  0  0  0  0  0  0
   16.4507   -5.1374   -3.7775 C   0  0  0  0  0  0  0  0  0  0  0  0
   15.3489   -5.3419   -3.2917 O   0  0  0  0  0  0  0  0  0  0  0  0
   17.0330   -3.8914   -3.8676 N   0  0  0  0  0  0  0  0  0  0  0  0
   16.2934   -2.6651   -3.5566 C   0  0  1  0  0  0  0  0  0  0  0  0
   16.5634   -2.0955   -2.1304 C   0  0  0  0  0  0  0  0  0  0  0  0
   16.3178   -3.1763   -1.0639 C   0  0  0  0  0  0  0  0  0  0  0  0
   15.5929   -0.9383   -1.8453 C   0  0  0  0  0  0  0  0  0  0  0  0
   17.9986   -1.5732   -1.9651 C   0  0  0  0  0  0  0  0  0  0  0  0
   16.6588   -1.6993   -4.7015 C   0  0  0  0  0  0  0  0  0  0  0  0
   17.8300   -1.4657   -4.9771 O   0  0  0  0  0  0  0  0  0  0  0  0
   15.6054   -1.1539   -5.4343 N   0  0  0  0  0  0  0  0  0  0  0  0
   15.8515   -0.3775   -6.6404 C   0  0  2  0  0  0  0  0  0  0  0  0
   16.1920    1.0767   -6.3042 C   0  0  0  0  0  0  0  0  0  0  0  0
   15.5235    1.7550   -5.5356 O   0  0  0  0  0  0  0  0  0  0  0  0
   17.3097    1.5492   -6.9648 N   0  0  0  0  0  0  0  0  0  0  0  0
   17.7919    2.9046   -6.7578 C   0  0  0  0  0  0  0  0  0  0  0  0
   19.2275    3.1255   -7.1723 C   0  0  0  0  0  0  0  0  0  0  0  0
   20.1609    2.0954   -7.1628 C   0  0  0  0  0  0  0  0  0  0  0  0
   21.4787    2.3270   -7.5021 C   0  0  0  0  0  0  0  0  0  0  0  0
   21.9187    3.5961   -7.8445 C   0  0  0  0  0  0  0  0  0  0  0  0
   23.3179    3.8160   -8.1731 C   0  0  0  0  0  0  0  0  0  0  0  0
   24.3795    4.2074   -7.3701 C   0  0  0  0  0  0  0  0  0  0  0  0
   24.3257    4.5473   -5.9303 C   0  0  0  0  0  0  0  0  0  0  0  0
   25.6048    4.2545   -8.0045 N   0  0  0  0  0  0  0  0  0  0  0  0
   25.4604    3.9289   -9.2693 C   0  0  0  0  0  0  0  0  0  0  0  0
   23.8744    3.5562   -9.7775 S   0  0  0  0  0  0  0  0  0  0  0  0
   20.9980    4.6361   -7.8452 C   0  0  0  0  0  0  0  0  0  0  0  0
   19.6714    4.4015   -7.5126 C   0  0  0  0  0  0  0  0  0  0  0  0
   14.5442   -0.4686   -7.4079 C   0  0  0  0  0  0  0  0  0  0  0  0
   13.4812   -0.5957   -6.3270 C   0  0  1  0  0  0  0  0  0  0  0  0
   12.3474   -1.3214   -6.8013 O   0  0  0  0  0  0  0  0  0  0  0  0
   14.1851   -1.3795   -5.2312 C   0  0  0  0  0  0  0  0  0  0  0  0
   18.2674   -5.8863   -4.6907 H   0  0  0  0  0  0  0  0  0  0  0  0
   16.7631   -6.6551   -5.2407 H   0  0  0  0  0  0  0  0  0  0  0  0
   17.4270   -7.0314   -3.6283 H   0  0  0  0  0  0  0  0  0  0  0  0
   17.9786   -3.8108   -4.2317 H   0  0  0  0  0  0  0  0  0  0  0  0
   15.2336   -2.9241   -3.6182 H   0  0  0  0  0  0  0  0  0  0  0  0
   16.4166   -2.7696   -0.0522 H   0  0  0  0  0  0  0  0  0  0  0  0
   17.0330   -4.0001   -1.1439 H   0  0  0  0  0  0  0  0  0  0  0  0
   15.3097   -3.5963   -1.1432 H   0  0  0  0  0  0  0  0  0  0  0  0
   15.7252   -0.1195   -2.5601 H   0  0  0  0  0  0  0  0  0  0  0  0
   15.7508   -0.5213   -0.8449 H   0  0  0  0  0  0  0  0  0  0  0  0
   14.5480   -1.2570   -1.9115 H   0  0  0  0  0  0  0  0  0  0  0  0
   18.2095   -1.3042   -0.9252 H   0  0  0  0  0  0  0  0  0  0  0  0
   18.1817   -0.6759   -2.5633 H   0  0  0  0  0  0  0  0  0  0  0  0
   18.7328   -2.3243   -2.2602 H   0  0  0  0  0  0  0  0  0  0  0  0
   16.6727   -0.8287   -7.2094 H   0  0  0  0  0  0  0  0  0  0  0  0
   17.8137    0.9315   -7.5953 H   0  0  0  0  0  0  0  0  0  0  0  0
   17.1308    3.5588   -7.3369 H   0  0  0  0  0  0  0  0  0  0  0  0
   17.6752    3.1634   -5.6998 H   0  0  0  0  0  0  0  0  0  0  0  0
   19.8709    1.0867   -6.8908 H   0  0  0  0  0  0  0  0  0  0  0  0
   22.1673    1.4910   -7.5036 H   0  0  0  0  0  0  0  0  0  0  0  0
   25.2905    4.9240   -5.5785 H   0  0  0  0  0  0  0  0  0  0  0  0
   24.0771    3.6656   -5.3355 H   0  0  0  0  0  0  0  0  0  0  0  0
   23.5744    5.3184   -5.7374 H   0  0  0  0  0  0  0  0  0  0  0  0
   26.2929    3.9003   -9.9576 H   0  0  0  0  0  0  0  0  0  0  0  0
   21.3098    5.6428   -8.1071 H   0  0  0  0  0  0  0  0  0  0  0  0
   18.9763    5.2363   -7.5166 H   0  0  0  0  0  0  0  0  0  0  0  0
   14.3610    0.3849   -8.0693 H   0  0  0  0  0  0  0  0  0  0  0  0
   14.5524   -1.3702   -8.0291 H   0  0  0  0  0  0  0  0  0  0  0  0
   13.1549    0.3845   -5.9619 H   0  0  0  0  0  0  0  0  0  0  0  0
   11.9062   -0.7853   -7.4856 H   0  0  0  0  0  0  0  0  0  0  0  0
   13.9738   -2.4514   -5.2954 H   0  0  0  0  0  0  0  0  0  0  0  0
   13.8892   -1.0365   -4.2359 H   0  0  0  0  0  0  0  0  0  0  0  0
  1 34  1  0  0  0  0
  1 35  1  0  0  0  0
  1 36  1  0  0  0  0
  1  2  1  0  0  0  0
  2  3  2  0  0  0  0
  2  4  1  0  0  0  0
  4 37  1  0  0  0  0
  5  4  1  0  0  0  0
  5 38  1  0  0  0  0
  5  6  1  0  0  0  0
  5 10  1  0  0  0  0
  6  7  1  0  0  0  0
  6  8  1  0  0  0  0
  6  9  1  0  0  0  0
  7 39  1  0  0  0  0
  7 40  1  0  0  0  0
  7 41  1  0  0  0  0
  8 42  1  0  0  0  0
  8 43  1  0  0  0  0
  8 44  1  0  0  0  0
  9 45  1  0  0  0  0
  9 46  1  0  0  0  0
  9 47  1  0  0  0  0
 10 11  2  0  0  0  0
 10 12  1  0  0  0  0
 12 33  1  0  0  0  0
 13 12  1  0  0  0  0
 13 30  1  0  0  0  0
 13 48  1  0  0  0  0
 13 14  1  0  0  0  0
 14 15  2  0  0  0  0
 14 16  1  0  0  0  0
 16 49  1  0  0  0  0
 16 17  1  0  0  0  0
 17 50  1  0  0  0  0
 17 51  1  0  0  0  0
 17 18  1  0  0  0  0
 18 19  1  0  0  0  0
 18 29  2  0  0  0  0
 19 52  1  0  0  0  0
 19 20  2  0  0  0  0
 20 53  1  0  0  0  0
 20 21  1  0  0  0  0
 21 28  2  0  0  0  0
 21 22  1  0  0  0  0
 22 23  2  0  0  0  0
 22 27  1  0  0  0  0
 23 24  1  0  0  0  0
 23 25  1  0  0  0  0
 24 54  1  0  0  0  0
 24 55  1  0  0  0  0
 24 56  1  0  0  0  0
 25 26  2  0  0  0  0
 26 57  1  0  0  0  0
 26 27  1  0  0  0  0
 28 58  1  0  0  0  0
 28 29  1  0  0  0  0
 29 59  1  0  0  0  0
 31 30  1  0  0  0  0
 30 60  1  0  0  0  0
 30 61  1  0  0  0  0
 31 33  1  0  0  0  0
 31 62  1  0  0  0  0
 31 32  1  0  0  0  0
 32 63  1  0  0  0  0
 33 64  1  0  0  0  0
 33 65  1  0  0  0  0
M  ZZC   1 c1
M  ZZC   2 c2
M  ZZC   3 o1
M  ZZC   4 n1
M  ZZC   5 c3
M  ZZC   6 c4
M  ZZC   7 c5
M  ZZC   8 c6
M  ZZC   9 c7
M  ZZC  10 c8
M  ZZC  11 o2
M  ZZC  12 n2
M  ZZC  13 c9
M  ZZC  14 c10
M  ZZC  15 o3
M  ZZC  16 n3
M  ZZC  17 c11
M  ZZC  18 c12
M  ZZC  19 c13
M  ZZC  20 c14
M  ZZC  21 c15
M  ZZC  22 c16
M  ZZC  23 c17
M  ZZC  24 c18
M  ZZC  25 n4
M  ZZC  26 c19
M  ZZC  27 s1
M  ZZC  28 c20
M  ZZC  29 c21
M  ZZC  30 c22
M  ZZC  31 c23
M  ZZC  32 o4
M  ZZC  33 c24
M  ZZC  34 h11
M  ZZC  35 h12
M  ZZC  36 h13
M  ZZC  37 h01
M  ZZC  38 h31
M  ZZC  39 h51
M  ZZC  40 h52
M  ZZC  41 h53
M  ZZC  42 h61
M  ZZC  43 h62
M  ZZC  44 h63
M  ZZC  45 h71
M  ZZC  46 h72
M  ZZC  47 h73
M  ZZC  48 h91
M  ZZC  49 h02
M  ZZC  50 h111
M  ZZC  51 h112
M  ZZC  52 h131
M  ZZC  53 h141
M  ZZC  54 h181
M  ZZC  55 h182
M  ZZC  56 h183
M  ZZC  57 h191
M  ZZC  58 h201
M  ZZC  59 h211
M  ZZC  60 h221
M  ZZC  61 h222
M  ZZC  62 h231
M  ZZC  63 h41
M  ZZC  64 h241
M  ZZC  65 h242
M  ZZM   1 1
M  ZZI   1 111
M  ZZM   2 3
M  ZZI   2 121
M  ZZM   3 7
M  ZZI   3 81
M  ZZM   4 10
M  ZZI   4 211
M  ZZM   5 1
M  ZZI   5 113
M  ZZM   6 1
M  ZZI   6 110
M  ZZM   7 1
M  ZZI   7 111
M  ZZM   8 1
M  ZZI   8 111
M  ZZM   9 1
M  ZZI   9 111
M  ZZM  10 3
M  ZZI  10 121
M  ZZM  11 7
M  ZZI  11 81
M  ZZM  12 10
M  ZZI  12 192
M  ZZM  13 1
M  ZZI  13 113
M  ZZM  14 3
M  ZZI  14 121
M  ZZM  15 7
M  ZZI  15 81
M  ZZM  16 10
M  ZZI  16 211
M  ZZM  17 1
M  ZZI  17 112
M  ZZM  18 37
M  ZZI  18 124
M  ZZM  19 37
M  ZZI  19 125
M  ZZM  20 37
M  ZZI  20 125
M  ZZM  21 37
M  ZZI  21 124
M  ZZM  22 63
M  ZZI  22 104
M  ZZM  23 64
M  ZZI  23 105
M  ZZM  24 1
M  ZZI  24 111
M  ZZM  25 66
M  ZZI  25 222
M  ZZM  26 63
M  ZZI  26 104
M  ZZM  27 44
M  ZZI  27 248
M  ZZM  28 37
M  ZZI  28 125
M  ZZM  29 37
M  ZZI  29 125
M  ZZM  30 1
M  ZZI  30 112
M  ZZM  31 1
M  ZZI  31 113
M  ZZM  32 6
M  ZZI  32 60
M  ZZM  33 1
M  ZZI  33 112
M  ZZM  34 5
M  ZZI  34 1
M  ZZM  35 5
M  ZZI  35 1
M  ZZM  36 5
M  ZZI  36 1
M  ZZM  37 28
M  ZZI  37 11
M  ZZM  38 5
M  ZZI  38 1
M  ZZM  39 5
M  ZZI  39 1
M  ZZM  40 5
M  ZZI  40 1
M  ZZM  41 5
M  ZZI  41 1
M  ZZM  42 5
M  ZZI  42 1
M  ZZM  43 5
M  ZZI  43 1
M  ZZM  44 5
M  ZZI  44 1
M  ZZM  45 5
M  ZZI  45 1
M  ZZM  46 5
M  ZZI  46 1
M  ZZM  47 5
M  ZZI  47 1
M  ZZM  48 5
M  ZZI  48 1
M  ZZM  49 28
M  ZZI  49 11
M  ZZM  50 5
M  ZZI  50 1
M  ZZM  51 5
M  ZZI  51 1
M  ZZM  52 5
M  ZZI  52 1
M  ZZM  53 5
M  ZZI  53 1
M  ZZM  54 5
M  ZZI  54 1
M  ZZM  55 5
M  ZZI  55 1
M  ZZM  56 5
M  ZZI  56 1
M  ZZM  57 5
M  ZZI  57 1
M  ZZM  58 5
M  ZZI  58 1
M  ZZM  59 5
M  ZZI  59 1
M  ZZM  60 5
M  ZZI  60 1
M  ZZM  61 5
M  ZZI  61 1
M  ZZM  62 5
M  ZZI  62 1
M  ZZM  63 21
M  ZZI  63 20
M  ZZM  64 5
M  ZZI  64 1
M  ZZM  65 5
M  ZZI  65 1
M  END
> <IX>
1

> <NAME>
VHL_3UE4_4.pdb

> <Score>
-16.030551

> <Natom>
65

> <Nflex>
8

> <Hbond>
-4.866757

> <Hphob>
-6.253602

> <VwInt>
-32.21876

> <Dsolv>
17.449792

> <SolEl>
18.277501

> <Eintl>
4.567537

> <RecConf>
ND

> <projPath>
VHL_maps/

> <NAME_>
VHL_3UE4_4.pdb

$$$$
