VHL_4QNQ_16.pdb
  MOLSOFT 04032206403D

 68 70  0  0  1  0  0  0  0  0999 V2000
   18.0918   -6.8182   -5.1239 C   0  0  0  0  0  0  0  0  0  0  0  0
   16.8864   -5.9283   -4.9976 C   0  0  0  0  0  0  0  0  0  0  0  0
   15.8166   -6.2543   -5.4823 O   0  0  0  0  0  0  0  0  0  0  0  0
   17.1188   -4.7807   -4.2660 N   0  0  0  0  0  0  0  0  0  0  0  0
   16.1188   -3.7298   -4.0147 C   0  0  1  0  0  0  0  0  0  0  0  0
   15.8548   -3.5298   -2.4938 C   0  0  0  0  0  0  0  0  0  0  0  0
   17.1070   -3.0731   -1.7312 C   0  0  0  0  0  0  0  0  0  0  0  0
   15.3705   -4.8676   -1.9288 C   0  0  0  0  0  0  0  0  0  0  0  0
   14.7487   -2.5085   -2.2060 C   0  0  0  0  0  0  0  0  0  0  0  0
   16.6508   -2.5024   -4.7752 C   0  0  0  0  0  0  0  0  0  0  0  0
   17.8513   -2.2580   -4.8109 O   0  0  0  0  0  0  0  0  0  0  0  0
   15.7277   -1.6967   -5.4452 N   0  0  0  0  0  0  0  0  0  0  0  0
   16.1771   -0.7338   -6.4328 C   0  0  2  0  0  0  0  0  0  0  0  0
   16.6341    0.5606   -5.7610 C   0  0  0  0  0  0  0  0  0  0  0  0
   16.1290    0.9899   -4.7319 O   0  0  0  0  0  0  0  0  0  0  0  0
   17.6269    1.2177   -6.4647 N   0  0  0  0  0  0  0  0  0  0  0  0
   18.1946    2.4682   -5.9868 C   0  0  1  0  0  0  0  0  0  0  0  0
   19.4797    2.8088   -6.7390 C   0  0  0  0  0  0  0  0  0  0  0  0
   17.2022    3.6124   -6.0660 C   0  0  0  0  0  0  0  0  0  0  0  0
   16.3554    3.7829   -7.1599 C   0  0  0  0  0  0  0  0  0  0  0  0
   15.4489    4.8291   -7.2086 C   0  0  0  0  0  0  0  0  0  0  0  0
   15.3643    5.7417   -6.1613 C   0  0  0  0  0  0  0  0  0  0  0  0
   14.4311    6.8598   -6.1972 C   0  0  0  0  0  0  0  0  0  0  0  0
   13.4582    7.2637   -5.2891 C   0  0  0  0  0  0  0  0  0  0  0  0
   13.0506    6.5848   -4.0375 C   0  0  0  0  0  0  0  0  0  0  0  0
   12.8214    8.4438   -5.6049 N   0  0  0  0  0  0  0  0  0  0  0  0
   13.2945    8.9096   -6.7376 C   0  0  0  0  0  0  0  0  0  0  0  0
   14.4786    7.9638   -7.5164 S   0  0  0  0  0  0  0  0  0  0  0  0
   16.2074    5.5733   -5.0687 C   0  0  0  0  0  0  0  0  0  0  0  0
   17.1144    4.5296   -5.0240 C   0  0  0  0  0  0  0  0  0  0  0  0
   14.9615   -0.5207   -7.3213 C   0  0  0  0  0  0  0  0  0  0  0  0
   13.7819   -0.6932   -6.3761 C   0  0  1  0  0  0  0  0  0  0  0  0
   12.6461   -1.2437   -7.0388 O   0  0  0  0  0  0  0  0  0  0  0  0
   14.2806   -1.6702   -5.3247 C   0  0  0  0  0  0  0  0  0  0  0  0
   19.0074   -6.2275   -5.2248 H   0  0  0  0  0  0  0  0  0  0  0  0
   17.9886   -7.4460   -6.0139 H   0  0  0  0  0  0  0  0  0  0  0  0
   18.1552   -7.4569   -4.2398 H   0  0  0  0  0  0  0  0  0  0  0  0
   18.0752   -4.5919   -3.9859 H   0  0  0  0  0  0  0  0  0  0  0  0
   15.1885   -4.0559   -4.4792 H   0  0  0  0  0  0  0  0  0  0  0  0
   16.9138   -2.9960   -0.6563 H   0  0  0  0  0  0  0  0  0  0  0  0
   17.4531   -2.0914   -2.0693 H   0  0  0  0  0  0  0  0  0  0  0  0
   17.9329   -3.7697   -1.8555 H   0  0  0  0  0  0  0  0  0  0  0  0
   15.1022   -4.7707   -0.8753 H   0  0  0  0  0  0  0  0  0  0  0  0
   16.1366   -5.6402   -2.0132 H   0  0  0  0  0  0  0  0  0  0  0  0
   14.4850   -5.2329   -2.4591 H   0  0  0  0  0  0  0  0  0  0  0  0
   15.0472   -1.4963   -2.4922 H   0  0  0  0  0  0  0  0  0  0  0  0
   14.5148   -2.4682   -1.1369 H   0  0  0  0  0  0  0  0  0  0  0  0
   13.8183   -2.7703   -2.7190 H   0  0  0  0  0  0  0  0  0  0  0  0
   17.0102   -1.1539   -7.0040 H   0  0  0  0  0  0  0  0  0  0  0  0
   18.0475    0.7666   -7.2720 H   0  0  0  0  0  0  0  0  0  0  0  0
   18.4501    2.2952   -4.9345 H   0  0  0  0  0  0  0  0  0  0  0  0
   19.9668    3.6899   -6.3095 H   0  0  0  0  0  0  0  0  0  0  0  0
   19.2900    3.0237   -7.7941 H   0  0  0  0  0  0  0  0  0  0  0  0
   20.1912    1.9786   -6.6979 H   0  0  0  0  0  0  0  0  0  0  0  0
   16.3888    3.0820   -7.9863 H   0  0  0  0  0  0  0  0  0  0  0  0
   14.7983    4.9202   -8.0740 H   0  0  0  0  0  0  0  0  0  0  0  0
   11.9970    6.7828   -3.8173 H   0  0  0  0  0  0  0  0  0  0  0  0
   13.6457    6.9464   -3.1943 H   0  0  0  0  0  0  0  0  0  0  0  0
   13.1749    5.5003   -4.1073 H   0  0  0  0  0  0  0  0  0  0  0  0
   12.9603    9.8427   -7.1589 H   0  0  0  0  0  0  0  0  0  0  0  0
   16.1728    6.2694   -4.2359 H   0  0  0  0  0  0  0  0  0  0  0  0
   17.7568    4.4317   -4.1536 H   0  0  0  0  0  0  0  0  0  0  0  0
   14.9487    0.4549   -7.8186 H   0  0  0  0  0  0  0  0  0  0  0  0
   14.9309   -1.2848   -8.1059 H   0  0  0  0  0  0  0  0  0  0  0  0
   13.4939    0.2600   -5.9178 H   0  0  0  0  0  0  0  0  0  0  0  0
   12.3594   -0.6167   -7.7267 H   0  0  0  0  0  0  0  0  0  0  0  0
   13.8564   -2.6711   -5.4099 H   0  0  0  0  0  0  0  0  0  0  0  0
   14.0158   -1.2812   -4.3427 H   0  0  0  0  0  0  0  0  0  0  0  0
  1 35  1  0  0  0  0
  1 36  1  0  0  0  0
  1 37  1  0  0  0  0
  1  2  1  0  0  0  0
  2  3  2  0  0  0  0
  2  4  1  0  0  0  0
  4 38  1  0  0  0  0
  5  4  1  0  0  0  0
  5 39  1  0  0  0  0
  5  6  1  0  0  0  0
  5 10  1  0  0  0  0
  6  7  1  0  0  0  0
  6  8  1  0  0  0  0
  6  9  1  0  0  0  0
  7 40  1  0  0  0  0
  7 41  1  0  0  0  0
  7 42  1  0  0  0  0
  8 43  1  0  0  0  0
  8 44  1  0  0  0  0
  8 45  1  0  0  0  0
  9 46  1  0  0  0  0
  9 47  1  0  0  0  0
  9 48  1  0  0  0  0
 10 11  2  0  0  0  0
 10 12  1  0  0  0  0
 12 34  1  0  0  0  0
 13 12  1  0  0  0  0
 13 31  1  0  0  0  0
 13 49  1  0  0  0  0
 13 14  1  0  0  0  0
 14 15  2  0  0  0  0
 14 16  1  0  0  0  0
 16 50  1  0  0  0  0
 17 16  1  0  0  0  0
 17 51  1  0  0  0  0
 17 18  1  0  0  0  0
 17 19  1  0  0  0  0
 18 52  1  0  0  0  0
 18 53  1  0  0  0  0
 18 54  1  0  0  0  0
 19 20  1  0  0  0  0
 19 30  2  0  0  0  0
 20 55  1  0  0  0  0
 20 21  2  0  0  0  0
 21 56  1  0  0  0  0
 21 22  1  0  0  0  0
 22 29  2  0  0  0  0
 22 23  1  0  0  0  0
 23 24  2  0  0  0  0
 23 28  1  0  0  0  0
 24 25  1  0  0  0  0
 24 26  1  0  0  0  0
 25 57  1  0  0  0  0
 25 58  1  0  0  0  0
 25 59  1  0  0  0  0
 26 27  2  0  0  0  0
 27 60  1  0  0  0  0
 27 28  1  0  0  0  0
 29 61  1  0  0  0  0
 29 30  1  0  0  0  0
 30 62  1  0  0  0  0
 32 31  1  0  0  0  0
 31 63  1  0  0  0  0
 31 64  1  0  0  0  0
 32 34  1  0  0  0  0
 32 65  1  0  0  0  0
 32 33  1  0  0  0  0
 33 66  1  0  0  0  0
 34 67  1  0  0  0  0
 34 68  1  0  0  0  0
M  ZZC   1 c1
M  ZZC   2 c2
M  ZZC   3 o1
M  ZZC   4 n1
M  ZZC   5 c3
M  ZZC   6 c4
M  ZZC   7 c5
M  ZZC   8 c6
M  ZZC   9 c7
M  ZZC  10 c8
M  ZZC  11 o2
M  ZZC  12 n2
M  ZZC  13 c9
M  ZZC  14 c10
M  ZZC  15 o3
M  ZZC  16 n3
M  ZZC  17 c11
M  ZZC  18 c12
M  ZZC  19 c13
M  ZZC  20 c14
M  ZZC  21 c15
M  ZZC  22 c16
M  ZZC  23 c17
M  ZZC  24 c18
M  ZZC  25 c19
M  ZZC  26 n4
M  ZZC  27 c20
M  ZZC  28 s1
M  ZZC  29 c21
M  ZZC  30 c22
M  ZZC  31 c23
M  ZZC  32 c24
M  ZZC  33 o4
M  ZZC  34 c25
M  ZZC  35 h11
M  ZZC  36 h12
M  ZZC  37 h13
M  ZZC  38 h01
M  ZZC  39 h31
M  ZZC  40 h51
M  ZZC  41 h52
M  ZZC  42 h53
M  ZZC  43 h61
M  ZZC  44 h62
M  ZZC  45 h63
M  ZZC  46 h71
M  ZZC  47 h72
M  ZZC  48 h73
M  ZZC  49 h91
M  ZZC  50 h02
M  ZZC  51 h111
M  ZZC  52 h121
M  ZZC  53 h122
M  ZZC  54 h123
M  ZZC  55 h141
M  ZZC  56 h151
M  ZZC  57 h191
M  ZZC  58 h192
M  ZZC  59 h193
M  ZZC  60 h201
M  ZZC  61 h211
M  ZZC  62 h221
M  ZZC  63 h231
M  ZZC  64 h232
M  ZZC  65 h241
M  ZZC  66 h41
M  ZZC  67 h251
M  ZZC  68 h252
M  ZZM   1 1
M  ZZI   1 111
M  ZZM   2 3
M  ZZI   2 121
M  ZZM   3 7
M  ZZI   3 81
M  ZZM   4 10
M  ZZI   4 211
M  ZZM   5 1
M  ZZI   5 113
M  ZZM   6 1
M  ZZI   6 110
M  ZZM   7 1
M  ZZI   7 111
M  ZZM   8 1
M  ZZI   8 111
M  ZZM   9 1
M  ZZI   9 111
M  ZZM  10 3
M  ZZI  10 121
M  ZZM  11 7
M  ZZI  11 81
M  ZZM  12 10
M  ZZI  12 192
M  ZZM  13 1
M  ZZI  13 113
M  ZZM  14 3
M  ZZI  14 121
M  ZZM  15 7
M  ZZI  15 81
M  ZZM  16 10
M  ZZI  16 211
M  ZZM  17 1
M  ZZI  17 113
M  ZZM  18 1
M  ZZI  18 111
M  ZZM  19 37
M  ZZI  19 124
M  ZZM  20 37
M  ZZI  20 125
M  ZZM  21 37
M  ZZI  21 125
M  ZZM  22 37
M  ZZI  22 124
M  ZZM  23 63
M  ZZI  23 104
M  ZZM  24 64
M  ZZI  24 105
M  ZZM  25 1
M  ZZI  25 111
M  ZZM  26 66
M  ZZI  26 222
M  ZZM  27 63
M  ZZI  27 104
M  ZZM  28 44
M  ZZI  28 248
M  ZZM  29 37
M  ZZI  29 125
M  ZZM  30 37
M  ZZI  30 125
M  ZZM  31 1
M  ZZI  31 112
M  ZZM  32 1
M  ZZI  32 113
M  ZZM  33 6
M  ZZI  33 60
M  ZZM  34 1
M  ZZI  34 112
M  ZZM  35 5
M  ZZI  35 1
M  ZZM  36 5
M  ZZI  36 1
M  ZZM  37 5
M  ZZI  37 1
M  ZZM  38 28
M  ZZI  38 11
M  ZZM  39 5
M  ZZI  39 1
M  ZZM  40 5
M  ZZI  40 1
M  ZZM  41 5
M  ZZI  41 1
M  ZZM  42 5
M  ZZI  42 1
M  ZZM  43 5
M  ZZI  43 1
M  ZZM  44 5
M  ZZI  44 1
M  ZZM  45 5
M  ZZI  45 1
M  ZZM  46 5
M  ZZI  46 1
M  ZZM  47 5
M  ZZI  47 1
M  ZZM  48 5
M  ZZI  48 1
M  ZZM  49 5
M  ZZI  49 1
M  ZZM  50 28
M  ZZI  50 11
M  ZZM  51 5
M  ZZI  51 1
M  ZZM  52 5
M  ZZI  52 1
M  ZZM  53 5
M  ZZI  53 1
M  ZZM  54 5
M  ZZI  54 1
M  ZZM  55 5
M  ZZI  55 1
M  ZZM  56 5
M  ZZI  56 1
M  ZZM  57 5
M  ZZI  57 1
M  ZZM  58 5
M  ZZI  58 1
M  ZZM  59 5
M  ZZI  59 1
M  ZZM  60 5
M  ZZI  60 1
M  ZZM  61 5
M  ZZI  61 1
M  ZZM  62 5
M  ZZI  62 1
M  ZZM  63 5
M  ZZI  63 1
M  ZZM  64 5
M  ZZI  64 1
M  ZZM  65 5
M  ZZI  65 1
M  ZZM  66 21
M  ZZI  66 20
M  ZZM  67 5
M  ZZI  67 1
M  ZZM  68 5
M  ZZI  68 1
M  END
> <IX>
1

> <NAME>
VHL_4QNQ_16.pdb

> <Score>
-0.071666

> <Natom>
68

> <Nflex>
8

> <Hbond>
-5.105356

> <Hphob>
-6.992488

> <VwInt>
-26.469168

> <Dsolv>
22.964272

> <SolEl>
26.069245

> <Eintl>
7.950188

> <RecConf>
ND

> <projPath>
VHL_maps/

> <NAME_>
VHL_4QNQ_16.pdb

$$$$
