VHL_7M0T_1.pdb
  MOLSOFT 04032206453D

 68 70  0  0  1  0  0  0  0  0999 V2000
   18.4499   -7.0697   -5.4116 C   0  0  0  0  0  0  0  0  0  0  0  0
   17.2646   -6.1456   -5.3743 C   0  0  0  0  0  0  0  0  0  0  0  0
   16.1703   -6.5136   -5.7716 O   0  0  0  0  0  0  0  0  0  0  0  0
   17.5473   -4.9015   -4.8436 N   0  0  0  0  0  0  0  0  0  0  0  0
   16.5648   -3.8195   -4.7411 C   0  0  1  0  0  0  0  0  0  0  0  0
   15.9051   -3.7146   -3.3243 C   0  0  0  0  0  0  0  0  0  0  0  0
   15.4845   -5.0965   -2.8036 C   0  0  0  0  0  0  0  0  0  0  0  0
   14.6337   -2.8537   -3.3851 C   0  0  0  0  0  0  0  0  0  0  0  0
   16.8545   -3.0987   -2.2843 C   0  0  0  0  0  0  0  0  0  0  0  0
   17.2644   -2.5165   -5.1690 C   0  0  0  0  0  0  0  0  0  0  0  0
   18.4096   -2.2689   -4.8193 O   0  0  0  0  0  0  0  0  0  0  0  0
   16.5258   -1.5740   -5.8853 N   0  0  0  0  0  0  0  0  0  0  0  0
   17.0455   -0.2286   -6.0954 C   0  0  2  0  0  0  0  0  0  0  0  0
   17.0816    0.5747   -4.7983 C   0  0  0  0  0  0  0  0  0  0  0  0
   16.3331    0.3571   -3.8551 O   0  0  0  0  0  0  0  0  0  0  0  0
   17.9847    1.6207   -4.8375 N   0  0  0  0  0  0  0  0  0  0  0  0
   18.0132    2.6429   -3.8065 C   0  0  1  0  0  0  0  0  0  0  0  0
   19.4508    3.0780   -3.5274 C   0  0  0  0  0  0  0  0  0  0  0  0
   17.0762    3.7663   -4.2067 C   0  0  0  0  0  0  0  0  0  0  0  0
   17.4864    4.8602   -4.9667 C   0  0  0  0  0  0  0  0  0  0  0  0
   16.5818    5.8269   -5.3709 C   0  0  0  0  0  0  0  0  0  0  0  0
   15.2316    5.7292   -5.0457 C   0  0  0  0  0  0  0  0  0  0  0  0
   14.2724    6.7404   -5.4764 C   0  0  0  0  0  0  0  0  0  0  0  0
   13.2591    7.3854   -4.7761 C   0  0  0  0  0  0  0  0  0  0  0  0
   12.8972    7.2062   -3.3517 C   0  0  0  0  0  0  0  0  0  0  0  0
   12.5368    8.3030   -5.5070 N   0  0  0  0  0  0  0  0  0  0  0  0
   12.9879    8.3403   -6.7394 C   0  0  0  0  0  0  0  0  0  0  0  0
   14.2788    7.2930   -7.1081 S   0  0  0  0  0  0  0  0  0  0  0  0
   14.8193    4.6343   -4.2956 C   0  0  0  0  0  0  0  0  0  0  0  0
   15.7252    3.6773   -3.8798 C   0  0  0  0  0  0  0  0  0  0  0  0
   16.0788    0.4345   -7.0724 C   0  0  0  0  0  0  0  0  0  0  0  0
   15.4282   -0.7314   -7.7904 C   0  0  1  0  0  0  0  0  0  0  0  0
   16.2221   -1.1313   -8.9167 O   0  0  0  0  0  0  0  0  0  0  0  0
   15.3842   -1.8319   -6.7385 C   0  0  0  0  0  0  0  0  0  0  0  0
   19.3879   -6.5340   -5.2405 H   0  0  0  0  0  0  0  0  0  0  0  0
   18.5014   -7.5445   -6.3945 H   0  0  0  0  0  0  0  0  0  0  0  0
   18.3242   -7.8361   -4.6435 H   0  0  0  0  0  0  0  0  0  0  0  0
   18.4899   -4.7152   -4.5224 H   0  0  0  0  0  0  0  0  0  0  0  0
   15.8046   -4.0519   -5.4747 H   0  0  0  0  0  0  0  0  0  0  0  0
   14.9724   -5.0253   -1.8389 H   0  0  0  0  0  0  0  0  0  0  0  0
   16.3397   -5.7615   -2.6585 H   0  0  0  0  0  0  0  0  0  0  0  0
   14.7951   -5.5816   -3.4943 H   0  0  0  0  0  0  0  0  0  0  0  0
   14.8611   -1.8223   -3.6732 H   0  0  0  0  0  0  0  0  0  0  0  0
   14.1315   -2.8135   -2.4138 H   0  0  0  0  0  0  0  0  0  0  0  0
   13.9140   -3.2307   -4.1141 H   0  0  0  0  0  0  0  0  0  0  0  0
   16.4173   -3.1237   -1.2807 H   0  0  0  0  0  0  0  0  0  0  0  0
   17.0824   -2.0514   -2.5017 H   0  0  0  0  0  0  0  0  0  0  0  0
   17.8020   -3.6382   -2.2371 H   0  0  0  0  0  0  0  0  0  0  0  0
   18.0546   -0.3007   -6.5069 H   0  0  0  0  0  0  0  0  0  0  0  0
   18.5492    1.7654   -5.6676 H   0  0  0  0  0  0  0  0  0  0  0  0
   17.6341    2.2026   -2.8771 H   0  0  0  0  0  0  0  0  0  0  0  0
   20.0296    2.2389   -3.1295 H   0  0  0  0  0  0  0  0  0  0  0  0
   19.4881    3.8885   -2.7929 H   0  0  0  0  0  0  0  0  0  0  0  0
   19.9654    3.4144   -4.4331 H   0  0  0  0  0  0  0  0  0  0  0  0
   18.5227    4.9719   -5.2681 H   0  0  0  0  0  0  0  0  0  0  0  0
   16.9517    6.6681   -5.9496 H   0  0  0  0  0  0  0  0  0  0  0  0
   12.4216    6.2358   -3.1950 H   0  0  0  0  0  0  0  0  0  0  0  0
   12.1894    7.9708   -3.0253 H   0  0  0  0  0  0  0  0  0  0  0  0
   13.7786    7.2717   -2.7074 H   0  0  0  0  0  0  0  0  0  0  0  0
   12.5715    8.9943   -7.4879 H   0  0  0  0  0  0  0  0  0  0  0  0
   13.7731    4.4996   -4.0405 H   0  0  0  0  0  0  0  0  0  0  0  0
   15.3567    2.8315   -3.3059 H   0  0  0  0  0  0  0  0  0  0  0  0
   15.3163    1.0115   -6.5364 H   0  0  0  0  0  0  0  0  0  0  0  0
   16.5999    1.1164   -7.7527 H   0  0  0  0  0  0  0  0  0  0  0  0
   14.4312   -0.4796   -8.1554 H   0  0  0  0  0  0  0  0  0  0  0  0
   17.1592   -1.0509   -8.6586 H   0  0  0  0  0  0  0  0  0  0  0  0
   15.4535   -2.8284   -7.1810 H   0  0  0  0  0  0  0  0  0  0  0  0
   14.4839   -1.7541   -6.1216 H   0  0  0  0  0  0  0  0  0  0  0  0
  1 35  1  0  0  0  0
  1 36  1  0  0  0  0
  1 37  1  0  0  0  0
  1  2  1  0  0  0  0
  2  3  2  0  0  0  0
  2  4  1  0  0  0  0
  4 38  1  0  0  0  0
  5  4  1  0  0  0  0
  5 39  1  0  0  0  0
  5  6  1  0  0  0  0
  5 10  1  0  0  0  0
  6  7  1  0  0  0  0
  6  8  1  0  0  0  0
  6  9  1  0  0  0  0
  7 40  1  0  0  0  0
  7 41  1  0  0  0  0
  7 42  1  0  0  0  0
  8 43  1  0  0  0  0
  8 44  1  0  0  0  0
  8 45  1  0  0  0  0
  9 46  1  0  0  0  0
  9 47  1  0  0  0  0
  9 48  1  0  0  0  0
 10 11  2  0  0  0  0
 10 12  1  0  0  0  0
 12 34  1  0  0  0  0
 13 12  1  0  0  0  0
 13 31  1  0  0  0  0
 13 49  1  0  0  0  0
 13 14  1  0  0  0  0
 14 15  2  0  0  0  0
 14 16  1  0  0  0  0
 16 50  1  0  0  0  0
 17 16  1  0  0  0  0
 17 51  1  0  0  0  0
 17 18  1  0  0  0  0
 17 19  1  0  0  0  0
 18 52  1  0  0  0  0
 18 53  1  0  0  0  0
 18 54  1  0  0  0  0
 19 20  1  0  0  0  0
 19 30  2  0  0  0  0
 20 55  1  0  0  0  0
 20 21  2  0  0  0  0
 21 56  1  0  0  0  0
 21 22  1  0  0  0  0
 22 29  2  0  0  0  0
 22 23  1  0  0  0  0
 23 24  2  0  0  0  0
 23 28  1  0  0  0  0
 24 25  1  0  0  0  0
 24 26  1  0  0  0  0
 25 57  1  0  0  0  0
 25 58  1  0  0  0  0
 25 59  1  0  0  0  0
 26 27  2  0  0  0  0
 27 60  1  0  0  0  0
 27 28  1  0  0  0  0
 29 61  1  0  0  0  0
 29 30  1  0  0  0  0
 30 62  1  0  0  0  0
 32 31  1  0  0  0  0
 31 63  1  0  0  0  0
 31 64  1  0  0  0  0
 32 34  1  0  0  0  0
 32 65  1  0  0  0  0
 32 33  1  0  0  0  0
 33 66  1  0  0  0  0
 34 67  1  0  0  0  0
 34 68  1  0  0  0  0
M  ZZC   1 c1
M  ZZC   2 c2
M  ZZC   3 o1
M  ZZC   4 n1
M  ZZC   5 c3
M  ZZC   6 c4
M  ZZC   7 c5
M  ZZC   8 c6
M  ZZC   9 c7
M  ZZC  10 c8
M  ZZC  11 o2
M  ZZC  12 n2
M  ZZC  13 c9
M  ZZC  14 c10
M  ZZC  15 o3
M  ZZC  16 n3
M  ZZC  17 c11
M  ZZC  18 c12
M  ZZC  19 c13
M  ZZC  20 c14
M  ZZC  21 c15
M  ZZC  22 c16
M  ZZC  23 c17
M  ZZC  24 c18
M  ZZC  25 c19
M  ZZC  26 n4
M  ZZC  27 c20
M  ZZC  28 s1
M  ZZC  29 c21
M  ZZC  30 c22
M  ZZC  31 c23
M  ZZC  32 c24
M  ZZC  33 o4
M  ZZC  34 c25
M  ZZC  35 h11
M  ZZC  36 h12
M  ZZC  37 h13
M  ZZC  38 h01
M  ZZC  39 h31
M  ZZC  40 h51
M  ZZC  41 h52
M  ZZC  42 h53
M  ZZC  43 h61
M  ZZC  44 h62
M  ZZC  45 h63
M  ZZC  46 h71
M  ZZC  47 h72
M  ZZC  48 h73
M  ZZC  49 h91
M  ZZC  50 h02
M  ZZC  51 h111
M  ZZC  52 h121
M  ZZC  53 h122
M  ZZC  54 h123
M  ZZC  55 h141
M  ZZC  56 h151
M  ZZC  57 h191
M  ZZC  58 h192
M  ZZC  59 h193
M  ZZC  60 h201
M  ZZC  61 h211
M  ZZC  62 h221
M  ZZC  63 h231
M  ZZC  64 h232
M  ZZC  65 h241
M  ZZC  66 h41
M  ZZC  67 h251
M  ZZC  68 h252
M  ZZM   1 1
M  ZZI   1 111
M  ZZM   2 3
M  ZZI   2 121
M  ZZM   3 7
M  ZZI   3 81
M  ZZM   4 10
M  ZZI   4 211
M  ZZM   5 1
M  ZZI   5 113
M  ZZM   6 1
M  ZZI   6 110
M  ZZM   7 1
M  ZZI   7 111
M  ZZM   8 1
M  ZZI   8 111
M  ZZM   9 1
M  ZZI   9 111
M  ZZM  10 3
M  ZZI  10 121
M  ZZM  11 7
M  ZZI  11 81
M  ZZM  12 10
M  ZZI  12 192
M  ZZM  13 1
M  ZZI  13 113
M  ZZM  14 3
M  ZZI  14 121
M  ZZM  15 7
M  ZZI  15 81
M  ZZM  16 10
M  ZZI  16 211
M  ZZM  17 1
M  ZZI  17 113
M  ZZM  18 1
M  ZZI  18 111
M  ZZM  19 37
M  ZZI  19 124
M  ZZM  20 37
M  ZZI  20 125
M  ZZM  21 37
M  ZZI  21 125
M  ZZM  22 37
M  ZZI  22 124
M  ZZM  23 63
M  ZZI  23 104
M  ZZM  24 64
M  ZZI  24 105
M  ZZM  25 1
M  ZZI  25 111
M  ZZM  26 66
M  ZZI  26 222
M  ZZM  27 63
M  ZZI  27 104
M  ZZM  28 44
M  ZZI  28 248
M  ZZM  29 37
M  ZZI  29 125
M  ZZM  30 37
M  ZZI  30 125
M  ZZM  31 1
M  ZZI  31 112
M  ZZM  32 1
M  ZZI  32 113
M  ZZM  33 6
M  ZZI  33 60
M  ZZM  34 1
M  ZZI  34 112
M  ZZM  35 5
M  ZZI  35 1
M  ZZM  36 5
M  ZZI  36 1
M  ZZM  37 5
M  ZZI  37 1
M  ZZM  38 28
M  ZZI  38 11
M  ZZM  39 5
M  ZZI  39 1
M  ZZM  40 5
M  ZZI  40 1
M  ZZM  41 5
M  ZZI  41 1
M  ZZM  42 5
M  ZZI  42 1
M  ZZM  43 5
M  ZZI  43 1
M  ZZM  44 5
M  ZZI  44 1
M  ZZM  45 5
M  ZZI  45 1
M  ZZM  46 5
M  ZZI  46 1
M  ZZM  47 5
M  ZZI  47 1
M  ZZM  48 5
M  ZZI  48 1
M  ZZM  49 5
M  ZZI  49 1
M  ZZM  50 28
M  ZZI  50 11
M  ZZM  51 5
M  ZZI  51 1
M  ZZM  52 5
M  ZZI  52 1
M  ZZM  53 5
M  ZZI  53 1
M  ZZM  54 5
M  ZZI  54 1
M  ZZM  55 5
M  ZZI  55 1
M  ZZM  56 5
M  ZZI  56 1
M  ZZM  57 5
M  ZZI  57 1
M  ZZM  58 5
M  ZZI  58 1
M  ZZM  59 5
M  ZZI  59 1
M  ZZM  60 5
M  ZZI  60 1
M  ZZM  61 5
M  ZZI  61 1
M  ZZM  62 5
M  ZZI  62 1
M  ZZM  63 5
M  ZZI  63 1
M  ZZM  64 5
M  ZZI  64 1
M  ZZM  65 5
M  ZZI  65 1
M  ZZM  66 21
M  ZZI  66 20
M  ZZM  67 5
M  ZZI  67 1
M  ZZM  68 5
M  ZZI  68 1
M  END
> <IX>
1

> <NAME>
VHL_7M0T_1.pdb

> <Score>
-24.501578

> <Natom>
68

> <Nflex>
8

> <Hbond>
-8.049987

> <Hphob>
-6.428405

> <VwInt>
-28.782103

> <Dsolv>
20.064852

> <SolEl>
8.455115

> <Eintl>
5.875012

> <RecConf>
ND

> <projPath>
VHL_maps/

> <NAME_>
VHL_7M0T_1.pdb

$$$$
