VHL_1ERR_16.pdb
  MOLSOFT 04032206373D

 68 70  0  0  1  0  0  0  0  0999 V2000
   16.7636   -6.1501   -5.9410 O   0  0  0  0  0  0  0  0  0  0  0  0
   17.7825   -5.5303   -5.6769 C   0  0  0  0  0  0  0  0  0  0  0  0
   17.8282   -4.2388   -5.1806 N   0  0  0  0  0  0  0  0  0  0  0  0
   16.6575   -3.3779   -4.9893 C   0  0  1  0  0  0  0  0  0  0  0  0
   16.0138   -3.5002   -3.5666 C   0  0  0  0  0  0  0  0  0  0  0  0
   14.6338   -2.8266   -3.5466 C   0  0  0  0  0  0  0  0  0  0  0  0
   16.8890   -2.8534   -2.4826 C   0  0  0  0  0  0  0  0  0  0  0  0
   15.7942   -4.9670   -3.1651 C   0  0  0  0  0  0  0  0  0  0  0  0
   17.1524   -1.9501   -5.3132 C   0  0  0  0  0  0  0  0  0  0  0  0
   18.2529   -1.5767   -4.9334 O   0  0  0  0  0  0  0  0  0  0  0  0
   16.3208   -1.0730   -6.0130 N   0  0  0  0  0  0  0  0  0  0  0  0
   16.7670    0.2971   -6.2921 C   0  0  2  0  0  0  0  0  0  0  0  0
   16.6801    1.2487   -5.0972 C   0  0  0  0  0  0  0  0  0  0  0  0
   17.3629    2.2615   -5.0435 O   0  0  0  0  0  0  0  0  0  0  0  0
   15.6603    0.9690   -4.2072 N   0  0  0  0  0  0  0  0  0  0  0  0
   15.3141    1.8446   -3.1000 C   0  0  1  0  0  0  0  0  0  0  0  0
   14.1776    2.7817   -3.5122 C   0  0  0  0  0  0  0  0  0  0  0  0
   15.0268    1.0325   -1.8515 C   0  0  0  0  0  0  0  0  0  0  0  0
   16.0811    0.6942   -1.0071 C   0  0  0  0  0  0  0  0  0  0  0  0
   15.8709   -0.0334    0.1508 C   0  0  0  0  0  0  0  0  0  0  0  0
   14.5955   -0.4551    0.5017 C   0  0  0  0  0  0  0  0  0  0  0  0
   14.3735   -1.1869    1.7398 C   0  0  0  0  0  0  0  0  0  0  0  0
   14.8352   -2.4255    2.1634 C   0  0  0  0  0  0  0  0  0  0  0  0
   15.7224   -3.3471    1.4224 C   0  0  0  0  0  0  0  0  0  0  0  0
   14.3871   -2.8240    3.4076 N   0  0  0  0  0  0  0  0  0  0  0  0
   13.6379   -1.8798    3.9291 C   0  0  0  0  0  0  0  0  0  0  0  0
   13.4287   -0.4748    2.9846 S   0  0  0  0  0  0  0  0  0  0  0  0
   13.5406   -0.1515   -0.3514 C   0  0  0  0  0  0  0  0  0  0  0  0
   13.7522    0.5797   -1.5091 C   0  0  0  0  0  0  0  0  0  0  0  0
   15.8372    0.8025   -7.3898 C   0  0  0  0  0  0  0  0  0  0  0  0
   15.2834   -0.4589   -8.0173 C   0  0  1  0  0  0  0  0  0  0  0  0
   16.1692   -0.9511   -9.0336 O   0  0  0  0  0  0  0  0  0  0  0  0
   15.2051   -1.4411   -6.8612 C   0  0  0  0  0  0  0  0  0  0  0  0
   19.1387   -6.1505   -5.8846 C   0  0  0  0  0  0  0  0  0  0  0  0
   18.7349   -3.8236   -4.9945 H   0  0  0  0  0  0  0  0  0  0  0  0
   15.9423   -3.6901   -5.7425 H   0  0  0  0  0  0  0  0  0  0  0  0
   13.9679   -3.2349   -4.3050 H   0  0  0  0  0  0  0  0  0  0  0  0
   14.7078   -1.7515   -3.7399 H   0  0  0  0  0  0  0  0  0  0  0  0
   14.1421   -2.9483   -2.5769 H   0  0  0  0  0  0  0  0  0  0  0  0
   17.8931   -3.2835   -2.4679 H   0  0  0  0  0  0  0  0  0  0  0  0
   16.4605   -3.0003   -1.4875 H   0  0  0  0  0  0  0  0  0  0  0  0
   16.9925   -1.7747   -2.6259 H   0  0  0  0  0  0  0  0  0  0  0  0
   16.7354   -5.5133   -3.0604 H   0  0  0  0  0  0  0  0  0  0  0  0
   15.1816   -5.4900   -3.9009 H   0  0  0  0  0  0  0  0  0  0  0  0
   15.2749   -5.0488   -2.2045 H   0  0  0  0  0  0  0  0  0  0  0  0
   17.8085    0.2645   -6.6293 H   0  0  0  0  0  0  0  0  0  0  0  0
   15.1065    0.1355   -4.3558 H   0  0  0  0  0  0  0  0  0  0  0  0
   16.1794    2.4834   -2.8901 H   0  0  0  0  0  0  0  0  0  0  0  0
   14.4887    3.4279   -4.3392 H   0  0  0  0  0  0  0  0  0  0  0  0
   13.8662    3.4249   -2.6826 H   0  0  0  0  0  0  0  0  0  0  0  0
   13.2997    2.2301   -3.8616 H   0  0  0  0  0  0  0  0  0  0  0  0
   17.0933    1.0082   -1.2474 H   0  0  0  0  0  0  0  0  0  0  0  0
   16.7192   -0.2569    0.7911 H   0  0  0  0  0  0  0  0  0  0  0  0
   15.1964   -3.7794    0.5669 H   0  0  0  0  0  0  0  0  0  0  0  0
   16.0512   -4.1765    2.0542 H   0  0  0  0  0  0  0  0  0  0  0  0
   16.6058   -2.8187    1.0529 H   0  0  0  0  0  0  0  0  0  0  0  0
   13.1810   -1.9767    4.9033 H   0  0  0  0  0  0  0  0  0  0  0  0
   12.5339   -0.4844   -0.1160 H   0  0  0  0  0  0  0  0  0  0  0  0
   12.8988    0.7967   -2.1419 H   0  0  0  0  0  0  0  0  0  0  0  0
   15.0176    1.3982   -6.9716 H   0  0  0  0  0  0  0  0  0  0  0  0
   16.3728    1.4312   -8.1075 H   0  0  0  0  0  0  0  0  0  0  0  0
   14.3085   -0.2793   -8.4682 H   0  0  0  0  0  0  0  0  0  0  0  0
   17.0808   -0.8816   -8.6919 H   0  0  0  0  0  0  0  0  0  0  0  0
   15.2781   -2.4759   -7.2022 H   0  0  0  0  0  0  0  0  0  0  0  0
   14.2876   -1.2993   -6.2805 H   0  0  0  0  0  0  0  0  0  0  0  0
   19.2181   -6.5026   -6.9164 H   0  0  0  0  0  0  0  0  0  0  0  0
   19.2565   -6.9986   -5.2051 H   0  0  0  0  0  0  0  0  0  0  0  0
   19.9428   -5.4327   -5.7087 H   0  0  0  0  0  0  0  0  0  0  0  0
  1  2  2  0  0  0  0
  2  3  1  0  0  0  0
  2 34  1  0  0  0  0
  4  3  1  0  0  0  0
  3 35  1  0  0  0  0
  4  5  1  0  0  0  0
  4 36  1  0  0  0  0
  4  9  1  0  0  0  0
  5  6  1  0  0  0  0
  5  7  1  0  0  0  0
  5  8  1  0  0  0  0
  6 37  1  0  0  0  0
  6 38  1  0  0  0  0
  6 39  1  0  0  0  0
  7 40  1  0  0  0  0
  7 41  1  0  0  0  0
  7 42  1  0  0  0  0
  8 43  1  0  0  0  0
  8 44  1  0  0  0  0
  8 45  1  0  0  0  0
  9 10  2  0  0  0  0
  9 11  1  0  0  0  0
 11 33  1  0  0  0  0
 12 11  1  0  0  0  0
 12 30  1  0  0  0  0
 12 46  1  0  0  0  0
 12 13  1  0  0  0  0
 13 14  2  0  0  0  0
 13 15  1  0  0  0  0
 15 47  1  0  0  0  0
 16 15  1  0  0  0  0
 16 48  1  0  0  0  0
 16 17  1  0  0  0  0
 16 18  1  0  0  0  0
 17 49  1  0  0  0  0
 17 50  1  0  0  0  0
 17 51  1  0  0  0  0
 18 19  1  0  0  0  0
 18 29  2  0  0  0  0
 19 52  1  0  0  0  0
 19 20  2  0  0  0  0
 20 53  1  0  0  0  0
 20 21  1  0  0  0  0
 21 28  2  0  0  0  0
 21 22  1  0  0  0  0
 22 23  2  0  0  0  0
 22 27  1  0  0  0  0
 23 24  1  0  0  0  0
 23 25  1  0  0  0  0
 24 54  1  0  0  0  0
 24 55  1  0  0  0  0
 24 56  1  0  0  0  0
 25 26  2  0  0  0  0
 26 57  1  0  0  0  0
 26 27  1  0  0  0  0
 28 58  1  0  0  0  0
 28 29  1  0  0  0  0
 29 59  1  0  0  0  0
 31 30  1  0  0  0  0
 30 60  1  0  0  0  0
 30 61  1  0  0  0  0
 31 33  1  0  0  0  0
 31 62  1  0  0  0  0
 31 32  1  0  0  0  0
 32 63  1  0  0  0  0
 33 64  1  0  0  0  0
 33 65  1  0  0  0  0
 34 66  1  0  0  0  0
 34 67  1  0  0  0  0
 34 68  1  0  0  0  0
M  ZZC   1 o1
M  ZZC   2 c1
M  ZZC   3 n1
M  ZZC   4 c2
M  ZZC   5 c3
M  ZZC   6 c4
M  ZZC   7 c5
M  ZZC   8 c6
M  ZZC   9 c7
M  ZZC  10 o2
M  ZZC  11 n2
M  ZZC  12 c8
M  ZZC  13 c9
M  ZZC  14 o3
M  ZZC  15 n3
M  ZZC  16 c10
M  ZZC  17 c11
M  ZZC  18 c12
M  ZZC  19 c13
M  ZZC  20 c14
M  ZZC  21 c15
M  ZZC  22 c16
M  ZZC  23 c17
M  ZZC  24 c18
M  ZZC  25 n4
M  ZZC  26 c19
M  ZZC  27 s1
M  ZZC  28 c20
M  ZZC  29 c21
M  ZZC  30 c22
M  ZZC  31 c23
M  ZZC  32 o4
M  ZZC  33 c24
M  ZZC  34 c25
M  ZZC  35 h11
M  ZZC  36 h21
M  ZZC  37 h41
M  ZZC  38 h42
M  ZZC  39 h43
M  ZZC  40 h51
M  ZZC  41 h52
M  ZZC  42 h53
M  ZZC  43 h61
M  ZZC  44 h62
M  ZZC  45 h63
M  ZZC  46 h81
M  ZZC  47 h31
M  ZZC  48 h101
M  ZZC  49 h111
M  ZZC  50 h112
M  ZZC  51 h113
M  ZZC  52 h131
M  ZZC  53 h141
M  ZZC  54 h181
M  ZZC  55 h182
M  ZZC  56 h183
M  ZZC  57 h191
M  ZZC  58 h201
M  ZZC  59 h211
M  ZZC  60 h221
M  ZZC  61 h222
M  ZZC  62 h231
M  ZZC  63 h01
M  ZZC  64 h241
M  ZZC  65 h242
M  ZZC  66 h251
M  ZZC  67 h252
M  ZZC  68 h253
M  ZZM   1 7
M  ZZI   1 81
M  ZZM   2 3
M  ZZI   2 121
M  ZZM   3 10
M  ZZI   3 211
M  ZZM   4 1
M  ZZI   4 113
M  ZZM   5 1
M  ZZI   5 110
M  ZZM   6 1
M  ZZI   6 111
M  ZZM   7 1
M  ZZI   7 111
M  ZZM   8 1
M  ZZI   8 111
M  ZZM   9 3
M  ZZI   9 121
M  ZZM  10 7
M  ZZI  10 81
M  ZZM  11 10
M  ZZI  11 192
M  ZZM  12 1
M  ZZI  12 113
M  ZZM  13 3
M  ZZI  13 121
M  ZZM  14 7
M  ZZI  14 81
M  ZZM  15 10
M  ZZI  15 211
M  ZZM  16 1
M  ZZI  16 113
M  ZZM  17 1
M  ZZI  17 111
M  ZZM  18 37
M  ZZI  18 124
M  ZZM  19 37
M  ZZI  19 125
M  ZZM  20 37
M  ZZI  20 125
M  ZZM  21 37
M  ZZI  21 124
M  ZZM  22 63
M  ZZI  22 104
M  ZZM  23 64
M  ZZI  23 105
M  ZZM  24 1
M  ZZI  24 111
M  ZZM  25 66
M  ZZI  25 222
M  ZZM  26 63
M  ZZI  26 104
M  ZZM  27 44
M  ZZI  27 248
M  ZZM  28 37
M  ZZI  28 125
M  ZZM  29 37
M  ZZI  29 125
M  ZZM  30 1
M  ZZI  30 112
M  ZZM  31 1
M  ZZI  31 113
M  ZZM  32 6
M  ZZI  32 60
M  ZZM  33 1
M  ZZI  33 112
M  ZZM  34 1
M  ZZI  34 111
M  ZZM  35 28
M  ZZI  35 11
M  ZZM  36 5
M  ZZI  36 1
M  ZZM  37 5
M  ZZI  37 1
M  ZZM  38 5
M  ZZI  38 1
M  ZZM  39 5
M  ZZI  39 1
M  ZZM  40 5
M  ZZI  40 1
M  ZZM  41 5
M  ZZI  41 1
M  ZZM  42 5
M  ZZI  42 1
M  ZZM  43 5
M  ZZI  43 1
M  ZZM  44 5
M  ZZI  44 1
M  ZZM  45 5
M  ZZI  45 1
M  ZZM  46 5
M  ZZI  46 1
M  ZZM  47 28
M  ZZI  47 11
M  ZZM  48 5
M  ZZI  48 1
M  ZZM  49 5
M  ZZI  49 1
M  ZZM  50 5
M  ZZI  50 1
M  ZZM  51 5
M  ZZI  51 1
M  ZZM  52 5
M  ZZI  52 1
M  ZZM  53 5
M  ZZI  53 1
M  ZZM  54 5
M  ZZI  54 1
M  ZZM  55 5
M  ZZI  55 1
M  ZZM  56 5
M  ZZI  56 1
M  ZZM  57 5
M  ZZI  57 1
M  ZZM  58 5
M  ZZI  58 1
M  ZZM  59 5
M  ZZI  59 1
M  ZZM  60 5
M  ZZI  60 1
M  ZZM  61 5
M  ZZI  61 1
M  ZZM  62 5
M  ZZI  62 1
M  ZZM  63 21
M  ZZI  63 20
M  ZZM  64 5
M  ZZI  64 1
M  ZZM  65 5
M  ZZI  65 1
M  ZZM  66 5
M  ZZI  66 1
M  ZZM  67 5
M  ZZI  67 1
M  ZZM  68 5
M  ZZI  68 1
M  END
> <IX>
1

> <NAME>
VHL_1ERR_16.pdb

> <Score>
-25.075617

> <Natom>
68

> <Nflex>
8

> <Hbond>
-7.799999

> <Hphob>
-6.986864

> <VwInt>
-27.012752

> <Dsolv>
17.084235

> <SolEl>
9.018781

> <Eintl>
4.644599

> <RecConf>
ND

> <projPath>
VHL_maps/

> <NAME_>
VHL_1ERR_16.pdb

$$$$
