VHL_4CI3_18.pdb
  MOLSOFT 04032206383D

 65 67  0  0  1  0  0  0  0  0999 V2000
   18.1144   -6.6526   -5.1200 C   0  0  0  0  0  0  0  0  0  0  0  0
   16.8999   -5.7786   -4.9646 C   0  0  0  0  0  0  0  0  0  0  0  0
   15.8149   -6.1344   -5.3907 O   0  0  0  0  0  0  0  0  0  0  0  0
   17.1434   -4.6035   -4.2811 N   0  0  0  0  0  0  0  0  0  0  0  0
   16.1354   -3.5644   -4.0130 C   0  0  1  0  0  0  0  0  0  0  0  0
   15.8958   -3.3689   -2.4863 C   0  0  0  0  0  0  0  0  0  0  0  0
   15.4302   -4.7076   -1.9012 C   0  0  0  0  0  0  0  0  0  0  0  0
   14.7914   -2.3485   -2.1865 C   0  0  0  0  0  0  0  0  0  0  0  0
   17.1614   -2.9062   -1.7502 C   0  0  0  0  0  0  0  0  0  0  0  0
   16.6288   -2.3252   -4.7895 C   0  0  0  0  0  0  0  0  0  0  0  0
   17.8235   -2.0565   -4.8444 O   0  0  0  0  0  0  0  0  0  0  0  0
   15.6762   -1.5542   -5.4635 N   0  0  0  0  0  0  0  0  0  0  0  0
   16.0691   -0.6429   -6.5280 C   0  0  2  0  0  0  0  0  0  0  0  0
   16.4509    0.7495   -6.0183 C   0  0  0  0  0  0  0  0  0  0  0  0
   15.9293    1.2683   -5.0406 O   0  0  0  0  0  0  0  0  0  0  0  0
   17.3818    1.3849   -6.8190 N   0  0  0  0  0  0  0  0  0  0  0  0
   17.8318    2.7408   -6.5505 C   0  0  0  0  0  0  0  0  0  0  0  0
   19.2424    3.0202   -7.0120 C   0  0  0  0  0  0  0  0  0  0  0  0
   19.6579    4.3250   -7.2692 C   0  0  0  0  0  0  0  0  0  0  0  0
   20.9675    4.6027   -7.6368 C   0  0  0  0  0  0  0  0  0  0  0  0
   21.8987    3.5785   -7.7549 C   0  0  0  0  0  0  0  0  0  0  0  0
   23.2832    3.8383   -8.1153 C   0  0  0  0  0  0  0  0  0  0  0  0
   24.3528    4.2549   -7.3358 C   0  0  0  0  0  0  0  0  0  0  0  0
   24.3246    4.5843   -5.8928 C   0  0  0  0  0  0  0  0  0  0  0  0
   25.5614    4.3354   -7.9982 N   0  0  0  0  0  0  0  0  0  0  0  0
   25.3972    4.0053   -9.2595 C   0  0  0  0  0  0  0  0  0  0  0  0
   23.8104    3.5911   -9.7316 S   0  0  0  0  0  0  0  0  0  0  0  0
   21.4852    2.2815   -7.4971 C   0  0  0  0  0  0  0  0  0  0  0  0
   20.1848    2.0064   -7.1280 C   0  0  0  0  0  0  0  0  0  0  0  0
   14.8330   -0.5720   -7.4105 C   0  0  0  0  0  0  0  0  0  0  0  0
   13.6798   -0.6927   -6.4254 C   0  0  1  0  0  0  0  0  0  0  0  0
   12.5388   -1.3093   -7.0161 O   0  0  0  0  0  0  0  0  0  0  0  0
   14.2300   -1.5819   -5.3231 C   0  0  0  0  0  0  0  0  0  0  0  0
   19.0161   -6.0500   -5.2653 H   0  0  0  0  0  0  0  0  0  0  0  0
   17.9882   -7.2989   -5.9938 H   0  0  0  0  0  0  0  0  0  0  0  0
   18.2228   -7.2748   -4.2287 H   0  0  0  0  0  0  0  0  0  0  0  0
   18.1042   -4.3992   -4.0308 H   0  0  0  0  0  0  0  0  0  0  0  0
   15.2028   -3.9100   -4.4593 H   0  0  0  0  0  0  0  0  0  0  0  0
   15.1725   -4.6050   -0.8443 H   0  0  0  0  0  0  0  0  0  0  0  0
   16.2017   -5.4752   -1.9843 H   0  0  0  0  0  0  0  0  0  0  0  0
   14.5427   -5.0860   -2.4184 H   0  0  0  0  0  0  0  0  0  0  0  0
   15.0739   -1.3414   -2.5055 H   0  0  0  0  0  0  0  0  0  0  0  0
   14.5864   -2.2863   -1.1126 H   0  0  0  0  0  0  0  0  0  0  0  0
   13.8499   -2.6254   -2.6703 H   0  0  0  0  0  0  0  0  0  0  0  0
   16.9862   -2.8171   -0.6732 H   0  0  0  0  0  0  0  0  0  0  0  0
   17.5040   -1.9293   -2.1050 H   0  0  0  0  0  0  0  0  0  0  0  0
   17.9831   -3.6083   -1.8791 H   0  0  0  0  0  0  0  0  0  0  0  0
   16.9174   -1.0652   -7.0765 H   0  0  0  0  0  0  0  0  0  0  0  0
   17.7749    0.8860   -7.6123 H   0  0  0  0  0  0  0  0  0  0  0  0
   17.1310    3.4034   -7.0701 H   0  0  0  0  0  0  0  0  0  0  0  0
   17.7549    2.9425   -5.4768 H   0  0  0  0  0  0  0  0  0  0  0  0
   18.9547    5.1478   -7.1774 H   0  0  0  0  0  0  0  0  0  0  0  0
   21.2583    5.6311   -7.8297 H   0  0  0  0  0  0  0  0  0  0  0  0
   25.2937    4.9642   -5.5568 H   0  0  0  0  0  0  0  0  0  0  0  0
   24.0927    3.6966   -5.2997 H   0  0  0  0  0  0  0  0  0  0  0  0
   23.5729    5.3499   -5.6803 H   0  0  0  0  0  0  0  0  0  0  0  0
   26.2145    3.9971   -9.9664 H   0  0  0  0  0  0  0  0  0  0  0  0
   22.1830    1.4580   -7.5847 H   0  0  0  0  0  0  0  0  0  0  0  0
   19.9152    0.9758   -6.9299 H   0  0  0  0  0  0  0  0  0  0  0  0
   14.7679    0.3429   -8.0088 H   0  0  0  0  0  0  0  0  0  0  0  0
   14.8223   -1.4176   -8.1068 H   0  0  0  0  0  0  0  0  0  0  0  0
   13.3864    0.2856   -6.0277 H   0  0  0  0  0  0  0  0  0  0  0  0
   12.1919   -0.7143   -7.7053 H   0  0  0  0  0  0  0  0  0  0  0  0
   13.8481   -2.6033   -5.3594 H   0  0  0  0  0  0  0  0  0  0  0  0
   13.9573   -1.1567   -4.3573 H   0  0  0  0  0  0  0  0  0  0  0  0
  1 34  1  0  0  0  0
  1 35  1  0  0  0  0
  1 36  1  0  0  0  0
  1  2  1  0  0  0  0
  2  3  2  0  0  0  0
  2  4  1  0  0  0  0
  4 37  1  0  0  0  0
  5  4  1  0  0  0  0
  5 38  1  0  0  0  0
  5  6  1  0  0  0  0
  5 10  1  0  0  0  0
  6  7  1  0  0  0  0
  6  8  1  0  0  0  0
  6  9  1  0  0  0  0
  7 39  1  0  0  0  0
  7 40  1  0  0  0  0
  7 41  1  0  0  0  0
  8 42  1  0  0  0  0
  8 43  1  0  0  0  0
  8 44  1  0  0  0  0
  9 45  1  0  0  0  0
  9 46  1  0  0  0  0
  9 47  1  0  0  0  0
 10 11  2  0  0  0  0
 10 12  1  0  0  0  0
 12 33  1  0  0  0  0
 13 12  1  0  0  0  0
 13 30  1  0  0  0  0
 13 48  1  0  0  0  0
 13 14  1  0  0  0  0
 14 15  2  0  0  0  0
 14 16  1  0  0  0  0
 16 49  1  0  0  0  0
 16 17  1  0  0  0  0
 17 50  1  0  0  0  0
 17 51  1  0  0  0  0
 17 18  1  0  0  0  0
 18 19  1  0  0  0  0
 18 29  2  0  0  0  0
 19 52  1  0  0  0  0
 19 20  2  0  0  0  0
 20 53  1  0  0  0  0
 20 21  1  0  0  0  0
 21 28  2  0  0  0  0
 21 22  1  0  0  0  0
 22 23  2  0  0  0  0
 22 27  1  0  0  0  0
 23 24  1  0  0  0  0
 23 25  1  0  0  0  0
 24 54  1  0  0  0  0
 24 55  1  0  0  0  0
 24 56  1  0  0  0  0
 25 26  2  0  0  0  0
 26 57  1  0  0  0  0
 26 27  1  0  0  0  0
 28 58  1  0  0  0  0
 28 29  1  0  0  0  0
 29 59  1  0  0  0  0
 31 30  1  0  0  0  0
 30 60  1  0  0  0  0
 30 61  1  0  0  0  0
 31 33  1  0  0  0  0
 31 62  1  0  0  0  0
 31 32  1  0  0  0  0
 32 63  1  0  0  0  0
 33 64  1  0  0  0  0
 33 65  1  0  0  0  0
M  ZZC   1 c1
M  ZZC   2 c2
M  ZZC   3 o1
M  ZZC   4 n1
M  ZZC   5 c3
M  ZZC   6 c4
M  ZZC   7 c5
M  ZZC   8 c6
M  ZZC   9 c7
M  ZZC  10 c8
M  ZZC  11 o2
M  ZZC  12 n2
M  ZZC  13 c9
M  ZZC  14 c10
M  ZZC  15 o3
M  ZZC  16 n3
M  ZZC  17 c11
M  ZZC  18 c12
M  ZZC  19 c13
M  ZZC  20 c14
M  ZZC  21 c15
M  ZZC  22 c16
M  ZZC  23 c17
M  ZZC  24 c18
M  ZZC  25 n4
M  ZZC  26 c19
M  ZZC  27 s1
M  ZZC  28 c20
M  ZZC  29 c21
M  ZZC  30 c22
M  ZZC  31 c23
M  ZZC  32 o4
M  ZZC  33 c24
M  ZZC  34 h11
M  ZZC  35 h12
M  ZZC  36 h13
M  ZZC  37 h01
M  ZZC  38 h31
M  ZZC  39 h51
M  ZZC  40 h52
M  ZZC  41 h53
M  ZZC  42 h61
M  ZZC  43 h62
M  ZZC  44 h63
M  ZZC  45 h71
M  ZZC  46 h72
M  ZZC  47 h73
M  ZZC  48 h91
M  ZZC  49 h02
M  ZZC  50 h111
M  ZZC  51 h112
M  ZZC  52 h131
M  ZZC  53 h141
M  ZZC  54 h181
M  ZZC  55 h182
M  ZZC  56 h183
M  ZZC  57 h191
M  ZZC  58 h201
M  ZZC  59 h211
M  ZZC  60 h221
M  ZZC  61 h222
M  ZZC  62 h231
M  ZZC  63 h41
M  ZZC  64 h241
M  ZZC  65 h242
M  ZZM   1 1
M  ZZI   1 111
M  ZZM   2 3
M  ZZI   2 121
M  ZZM   3 7
M  ZZI   3 81
M  ZZM   4 10
M  ZZI   4 211
M  ZZM   5 1
M  ZZI   5 113
M  ZZM   6 1
M  ZZI   6 110
M  ZZM   7 1
M  ZZI   7 111
M  ZZM   8 1
M  ZZI   8 111
M  ZZM   9 1
M  ZZI   9 111
M  ZZM  10 3
M  ZZI  10 121
M  ZZM  11 7
M  ZZI  11 81
M  ZZM  12 10
M  ZZI  12 192
M  ZZM  13 1
M  ZZI  13 113
M  ZZM  14 3
M  ZZI  14 121
M  ZZM  15 7
M  ZZI  15 81
M  ZZM  16 10
M  ZZI  16 211
M  ZZM  17 1
M  ZZI  17 112
M  ZZM  18 37
M  ZZI  18 124
M  ZZM  19 37
M  ZZI  19 125
M  ZZM  20 37
M  ZZI  20 125
M  ZZM  21 37
M  ZZI  21 124
M  ZZM  22 63
M  ZZI  22 104
M  ZZM  23 64
M  ZZI  23 105
M  ZZM  24 1
M  ZZI  24 111
M  ZZM  25 66
M  ZZI  25 222
M  ZZM  26 63
M  ZZI  26 104
M  ZZM  27 44
M  ZZI  27 248
M  ZZM  28 37
M  ZZI  28 125
M  ZZM  29 37
M  ZZI  29 125
M  ZZM  30 1
M  ZZI  30 112
M  ZZM  31 1
M  ZZI  31 113
M  ZZM  32 6
M  ZZI  32 60
M  ZZM  33 1
M  ZZI  33 112
M  ZZM  34 5
M  ZZI  34 1
M  ZZM  35 5
M  ZZI  35 1
M  ZZM  36 5
M  ZZI  36 1
M  ZZM  37 28
M  ZZI  37 11
M  ZZM  38 5
M  ZZI  38 1
M  ZZM  39 5
M  ZZI  39 1
M  ZZM  40 5
M  ZZI  40 1
M  ZZM  41 5
M  ZZI  41 1
M  ZZM  42 5
M  ZZI  42 1
M  ZZM  43 5
M  ZZI  43 1
M  ZZM  44 5
M  ZZI  44 1
M  ZZM  45 5
M  ZZI  45 1
M  ZZM  46 5
M  ZZI  46 1
M  ZZM  47 5
M  ZZI  47 1
M  ZZM  48 5
M  ZZI  48 1
M  ZZM  49 28
M  ZZI  49 11
M  ZZM  50 5
M  ZZI  50 1
M  ZZM  51 5
M  ZZI  51 1
M  ZZM  52 5
M  ZZI  52 1
M  ZZM  53 5
M  ZZI  53 1
M  ZZM  54 5
M  ZZI  54 1
M  ZZM  55 5
M  ZZI  55 1
M  ZZM  56 5
M  ZZI  56 1
M  ZZM  57 5
M  ZZI  57 1
M  ZZM  58 5
M  ZZI  58 1
M  ZZM  59 5
M  ZZI  59 1
M  ZZM  60 5
M  ZZI  60 1
M  ZZM  61 5
M  ZZI  61 1
M  ZZM  62 5
M  ZZI  62 1
M  ZZM  63 21
M  ZZI  63 20
M  ZZM  64 5
M  ZZI  64 1
M  ZZM  65 5
M  ZZI  65 1
M  END
> <IX>
1

> <NAME>
VHL_4CI3_18.pdb

> <Score>
-11.781688

> <Natom>
65

> <Nflex>
8

> <Hbond>
-4.961608

> <Hphob>
-6.429842

> <VwInt>
-28.062261

> <Dsolv>
16.936401

> <SolEl>
16.713993

> <Eintl>
7.679834

> <RecConf>
ND

> <projPath>
VHL_maps/

> <NAME_>
VHL_4CI3_18.pdb

$$$$
