VHL_5T8E_36.pdb
  MOLSOFT 04032206423D

 65 67  0  0  1  0  0  0  0  0999 V2000
   18.3870   -6.9321   -5.3408 C   0  0  0  0  0  0  0  0  0  0  0  0
   17.2038   -6.0043   -5.2927 C   0  0  0  0  0  0  0  0  0  0  0  0
   16.1040   -6.3736   -5.6718 O   0  0  0  0  0  0  0  0  0  0  0  0
   17.4931   -4.7589   -4.7673 N   0  0  0  0  0  0  0  0  0  0  0  0
   16.5153   -3.6720   -4.6525 C   0  0  1  0  0  0  0  0  0  0  0  0
   15.8913   -3.5479   -3.2247 C   0  0  0  0  0  0  0  0  0  0  0  0
   14.6640   -2.6232   -3.2578 C   0  0  0  0  0  0  0  0  0  0  0  0
   16.8909   -2.9871   -2.2008 C   0  0  0  0  0  0  0  0  0  0  0  0
   15.4144   -4.9169   -2.7144 C   0  0  0  0  0  0  0  0  0  0  0  0
   17.2076   -2.3781   -5.1241 C   0  0  0  0  0  0  0  0  0  0  0  0
   18.3577   -2.1209   -4.7992 O   0  0  0  0  0  0  0  0  0  0  0  0
   16.4665   -1.4651   -5.8754 N   0  0  0  0  0  0  0  0  0  0  0  0
   17.0250   -0.1645   -6.2265 C   0  0  2  0  0  0  0  0  0  0  0  0
   17.1997    0.8053   -5.0655 C   0  0  0  0  0  0  0  0  0  0  0  0
   16.5391    0.7590   -4.0367 O   0  0  0  0  0  0  0  0  0  0  0  0
   18.1081    1.8017   -5.3686 N   0  0  0  0  0  0  0  0  0  0  0  0
   18.2182    3.0080   -4.5827 C   0  0  0  0  0  0  0  0  0  0  0  0
   17.2772    4.0571   -5.1169 C   0  0  0  0  0  0  0  0  0  0  0  0
   17.5609    4.7281   -6.3036 C   0  0  0  0  0  0  0  0  0  0  0  0
   16.6837    5.6720   -6.8104 C   0  0  0  0  0  0  0  0  0  0  0  0
   15.5021    5.9736   -6.1418 C   0  0  0  0  0  0  0  0  0  0  0  0
   14.6160    7.0121   -6.6463 C   0  0  0  0  0  0  0  0  0  0  0  0
   13.9308    7.1275   -7.8496 C   0  0  0  0  0  0  0  0  0  0  0  0
   13.8891    6.1386   -8.9506 C   0  0  0  0  0  0  0  0  0  0  0  0
   13.2244    8.3035   -8.0065 N   0  0  0  0  0  0  0  0  0  0  0  0
   13.3736    9.0505   -6.9359 C   0  0  0  0  0  0  0  0  0  0  0  0
   14.3245    8.4036   -5.6803 S   0  0  0  0  0  0  0  0  0  0  0  0
   15.2045    5.2842   -4.9705 C   0  0  0  0  0  0  0  0  0  0  0  0
   16.0789    4.3361   -4.4674 C   0  0  0  0  0  0  0  0  0  0  0  0
   16.0344    0.4481   -7.2106 C   0  0  0  0  0  0  0  0  0  0  0  0
   15.3714   -0.7558   -7.8374 C   0  0  1  0  0  0  0  0  0  0  0  0
   16.1713   -1.2338   -8.9281 O   0  0  0  0  0  0  0  0  0  0  0  0
   15.3205   -1.7742   -6.7064 C   0  0  0  0  0  0  0  0  0  0  0  0
   19.3314   -6.3858   -5.2612 H   0  0  0  0  0  0  0  0  0  0  0  0
   18.3816   -7.4699   -6.2928 H   0  0  0  0  0  0  0  0  0  0  0  0
   18.3092   -7.6492   -4.5205 H   0  0  0  0  0  0  0  0  0  0  0  0
   18.4424   -4.5723   -4.4669 H   0  0  0  0  0  0  0  0  0  0  0  0
   15.7275   -3.9124   -5.3527 H   0  0  0  0  0  0  0  0  0  0  0  0
   14.9277   -1.5994   -3.5356 H   0  0  0  0  0  0  0  0  0  0  0  0
   14.1771   -2.5689   -2.2786 H   0  0  0  0  0  0  0  0  0  0  0  0
   13.9144   -2.9797   -3.9714 H   0  0  0  0  0  0  0  0  0  0  0  0
   16.4709   -2.9927   -1.1897 H   0  0  0  0  0  0  0  0  0  0  0  0
   17.1697   -1.9524   -2.4213 H   0  0  0  0  0  0  0  0  0  0  0  0
   17.8094   -3.5764   -2.1714 H   0  0  0  0  0  0  0  0  0  0  0  0
   14.9267   -4.8346   -1.7381 H   0  0  0  0  0  0  0  0  0  0  0  0
   16.2408   -5.6226   -2.5948 H   0  0  0  0  0  0  0  0  0  0  0  0
   14.6890   -5.3636   -3.3971 H   0  0  0  0  0  0  0  0  0  0  0  0
   17.9973   -0.3322   -6.6918 H   0  0  0  0  0  0  0  0  0  0  0  0
   18.6474    1.7466   -6.2261 H   0  0  0  0  0  0  0  0  0  0  0  0
   18.0061    2.7852   -3.5314 H   0  0  0  0  0  0  0  0  0  0  0  0
   19.2545    3.3568   -4.6439 H   0  0  0  0  0  0  0  0  0  0  0  0
   18.4794    4.5193   -6.8445 H   0  0  0  0  0  0  0  0  0  0  0  0
   16.9442    6.1934   -7.7273 H   0  0  0  0  0  0  0  0  0  0  0  0
   14.8805    5.9960   -9.3901 H   0  0  0  0  0  0  0  0  0  0  0  0
   13.2176    6.4723   -9.7473 H   0  0  0  0  0  0  0  0  0  0  0  0
   13.5399    5.1667   -8.5908 H   0  0  0  0  0  0  0  0  0  0  0  0
   12.9255   10.0262   -6.8382 H   0  0  0  0  0  0  0  0  0  0  0  0
   14.2797    5.4809   -4.4353 H   0  0  0  0  0  0  0  0  0  0  0  0
   15.8156    3.8080   -3.5551 H   0  0  0  0  0  0  0  0  0  0  0  0
   15.2852    1.0542   -6.6876 H   0  0  0  0  0  0  0  0  0  0  0  0
   16.5364    1.0883   -7.9440 H   0  0  0  0  0  0  0  0  0  0  0  0
   14.3773   -0.5207   -8.2173 H   0  0  0  0  0  0  0  0  0  0  0  0
   17.1043   -1.1883   -8.6483 H   0  0  0  0  0  0  0  0  0  0  0  0
   15.3822   -2.7980   -7.0828 H   0  0  0  0  0  0  0  0  0  0  0  0
   14.4224   -1.6471   -6.0937 H   0  0  0  0  0  0  0  0  0  0  0  0
  1 34  1  0  0  0  0
  1 35  1  0  0  0  0
  1 36  1  0  0  0  0
  1  2  1  0  0  0  0
  2  3  2  0  0  0  0
  2  4  1  0  0  0  0
  4 37  1  0  0  0  0
  5  4  1  0  0  0  0
  5 38  1  0  0  0  0
  5  6  1  0  0  0  0
  5 10  1  0  0  0  0
  6  7  1  0  0  0  0
  6  8  1  0  0  0  0
  6  9  1  0  0  0  0
  7 39  1  0  0  0  0
  7 40  1  0  0  0  0
  7 41  1  0  0  0  0
  8 42  1  0  0  0  0
  8 43  1  0  0  0  0
  8 44  1  0  0  0  0
  9 45  1  0  0  0  0
  9 46  1  0  0  0  0
  9 47  1  0  0  0  0
 10 11  2  0  0  0  0
 10 12  1  0  0  0  0
 12 33  1  0  0  0  0
 13 12  1  0  0  0  0
 13 30  1  0  0  0  0
 13 48  1  0  0  0  0
 13 14  1  0  0  0  0
 14 15  2  0  0  0  0
 14 16  1  0  0  0  0
 16 49  1  0  0  0  0
 16 17  1  0  0  0  0
 17 50  1  0  0  0  0
 17 51  1  0  0  0  0
 17 18  1  0  0  0  0
 18 19  1  0  0  0  0
 18 29  2  0  0  0  0
 19 52  1  0  0  0  0
 19 20  2  0  0  0  0
 20 53  1  0  0  0  0
 20 21  1  0  0  0  0
 21 28  2  0  0  0  0
 21 22  1  0  0  0  0
 22 23  2  0  0  0  0
 22 27  1  0  0  0  0
 23 24  1  0  0  0  0
 23 25  1  0  0  0  0
 24 54  1  0  0  0  0
 24 55  1  0  0  0  0
 24 56  1  0  0  0  0
 25 26  2  0  0  0  0
 26 57  1  0  0  0  0
 26 27  1  0  0  0  0
 28 58  1  0  0  0  0
 28 29  1  0  0  0  0
 29 59  1  0  0  0  0
 31 30  1  0  0  0  0
 30 60  1  0  0  0  0
 30 61  1  0  0  0  0
 31 33  1  0  0  0  0
 31 62  1  0  0  0  0
 31 32  1  0  0  0  0
 32 63  1  0  0  0  0
 33 64  1  0  0  0  0
 33 65  1  0  0  0  0
M  ZZC   1 c1
M  ZZC   2 c2
M  ZZC   3 o1
M  ZZC   4 n1
M  ZZC   5 c3
M  ZZC   6 c4
M  ZZC   7 c5
M  ZZC   8 c6
M  ZZC   9 c7
M  ZZC  10 c8
M  ZZC  11 o2
M  ZZC  12 n2
M  ZZC  13 c9
M  ZZC  14 c10
M  ZZC  15 o3
M  ZZC  16 n3
M  ZZC  17 c11
M  ZZC  18 c12
M  ZZC  19 c13
M  ZZC  20 c14
M  ZZC  21 c15
M  ZZC  22 c16
M  ZZC  23 c17
M  ZZC  24 c18
M  ZZC  25 n4
M  ZZC  26 c19
M  ZZC  27 s1
M  ZZC  28 c20
M  ZZC  29 c21
M  ZZC  30 c22
M  ZZC  31 c23
M  ZZC  32 o4
M  ZZC  33 c24
M  ZZC  34 h11
M  ZZC  35 h12
M  ZZC  36 h13
M  ZZC  37 h01
M  ZZC  38 h31
M  ZZC  39 h51
M  ZZC  40 h52
M  ZZC  41 h53
M  ZZC  42 h61
M  ZZC  43 h62
M  ZZC  44 h63
M  ZZC  45 h71
M  ZZC  46 h72
M  ZZC  47 h73
M  ZZC  48 h91
M  ZZC  49 h02
M  ZZC  50 h111
M  ZZC  51 h112
M  ZZC  52 h131
M  ZZC  53 h141
M  ZZC  54 h181
M  ZZC  55 h182
M  ZZC  56 h183
M  ZZC  57 h191
M  ZZC  58 h201
M  ZZC  59 h211
M  ZZC  60 h221
M  ZZC  61 h222
M  ZZC  62 h231
M  ZZC  63 h41
M  ZZC  64 h241
M  ZZC  65 h242
M  ZZM   1 1
M  ZZI   1 111
M  ZZM   2 3
M  ZZI   2 121
M  ZZM   3 7
M  ZZI   3 81
M  ZZM   4 10
M  ZZI   4 211
M  ZZM   5 1
M  ZZI   5 113
M  ZZM   6 1
M  ZZI   6 110
M  ZZM   7 1
M  ZZI   7 111
M  ZZM   8 1
M  ZZI   8 111
M  ZZM   9 1
M  ZZI   9 111
M  ZZM  10 3
M  ZZI  10 121
M  ZZM  11 7
M  ZZI  11 81
M  ZZM  12 10
M  ZZI  12 192
M  ZZM  13 1
M  ZZI  13 113
M  ZZM  14 3
M  ZZI  14 121
M  ZZM  15 7
M  ZZI  15 81
M  ZZM  16 10
M  ZZI  16 211
M  ZZM  17 1
M  ZZI  17 112
M  ZZM  18 37
M  ZZI  18 124
M  ZZM  19 37
M  ZZI  19 125
M  ZZM  20 37
M  ZZI  20 125
M  ZZM  21 37
M  ZZI  21 124
M  ZZM  22 63
M  ZZI  22 104
M  ZZM  23 64
M  ZZI  23 105
M  ZZM  24 1
M  ZZI  24 111
M  ZZM  25 66
M  ZZI  25 222
M  ZZM  26 63
M  ZZI  26 104
M  ZZM  27 44
M  ZZI  27 248
M  ZZM  28 37
M  ZZI  28 125
M  ZZM  29 37
M  ZZI  29 125
M  ZZM  30 1
M  ZZI  30 112
M  ZZM  31 1
M  ZZI  31 113
M  ZZM  32 6
M  ZZI  32 60
M  ZZM  33 1
M  ZZI  33 112
M  ZZM  34 5
M  ZZI  34 1
M  ZZM  35 5
M  ZZI  35 1
M  ZZM  36 5
M  ZZI  36 1
M  ZZM  37 28
M  ZZI  37 11
M  ZZM  38 5
M  ZZI  38 1
M  ZZM  39 5
M  ZZI  39 1
M  ZZM  40 5
M  ZZI  40 1
M  ZZM  41 5
M  ZZI  41 1
M  ZZM  42 5
M  ZZI  42 1
M  ZZM  43 5
M  ZZI  43 1
M  ZZM  44 5
M  ZZI  44 1
M  ZZM  45 5
M  ZZI  45 1
M  ZZM  46 5
M  ZZI  46 1
M  ZZM  47 5
M  ZZI  47 1
M  ZZM  48 5
M  ZZI  48 1
M  ZZM  49 28
M  ZZI  49 11
M  ZZM  50 5
M  ZZI  50 1
M  ZZM  51 5
M  ZZI  51 1
M  ZZM  52 5
M  ZZI  52 1
M  ZZM  53 5
M  ZZI  53 1
M  ZZM  54 5
M  ZZI  54 1
M  ZZM  55 5
M  ZZI  55 1
M  ZZM  56 5
M  ZZI  56 1
M  ZZM  57 5
M  ZZI  57 1
M  ZZM  58 5
M  ZZI  58 1
M  ZZM  59 5
M  ZZI  59 1
M  ZZM  60 5
M  ZZI  60 1
M  ZZM  61 5
M  ZZI  61 1
M  ZZM  62 5
M  ZZI  62 1
M  ZZM  63 21
M  ZZI  63 20
M  ZZM  64 5
M  ZZI  64 1
M  ZZM  65 5
M  ZZI  65 1
M  END
> <IX>
1

> <NAME>
VHL_5T8E_36.pdb

> <Score>
-24.445983

> <Natom>
65

> <Nflex>
8

> <Hbond>
-7.819796

> <Hphob>
-6.420332

> <VwInt>
-30.296033

> <Dsolv>
21.393103

> <SolEl>
9.939476

> <Eintl>
4.218125

> <RecConf>
ND

> <projPath>
VHL_maps/

> <NAME_>
VHL_5T8E_36.pdb

$$$$
