VHL_5T8E_9.pdb
  MOLSOFT 04032206453D

 75 78  0  0  1  0  0  0  0  0999 V2000
   13.5447    8.3391   -7.7451 C   0  0  0  0  0  0  0  0  0  0  0  0
   14.0943    7.9806   -6.3720 C   0  0  0  0  0  0  0  0  0  0  0  0
   14.2199    6.4729   -6.2037 C   0  0  0  0  0  0  0  0  0  0  0  0
   14.9778    5.8735   -7.3048 N   0  0  0  0  0  0  0  0  0  0  0  0
   16.0765    5.0167   -7.1817 C   0  0  0  0  0  0  0  0  0  0  0  0
   16.7055    4.6104   -8.1516 O   0  0  0  0  0  0  0  0  0  0  0  0
   16.4489    4.5375   -5.7854 C   0  0  0  0  0  0  0  0  0  0  0  0
   15.4655    3.4619   -5.2916 C   0  0  2  0  0  0  0  0  0  0  0  0
   15.7669    3.0321   -3.9295 N   0  0  0  0  0  0  0  0  0  0  0  0
   14.7778    2.7489   -2.9991 C   0  0  0  0  0  0  0  0  0  0  0  0
   13.5921    2.9967   -3.1739 O   0  0  0  0  0  0  0  0  0  0  0  0
   15.2893    1.9987   -1.7581 C   0  0  2  0  0  0  0  0  0  0  0  0
   14.8516    0.6098   -1.8529 N   0  0  0  0  0  0  0  0  0  0  0  0
   15.5148   -0.3003   -2.6798 C   0  0  0  0  0  0  0  0  0  0  0  0
   16.5766   -0.0122   -3.2138 O   0  0  0  0  0  0  0  0  0  0  0  0
   14.7943   -1.6216   -2.9704 C   0  0  2  0  0  0  0  0  0  0  0  0
   15.7133   -2.8758   -2.9962 C   0  0  0  0  0  0  0  0  0  0  0  0
   16.2307   -3.1947   -1.5939 C   0  0  0  0  0  0  0  0  0  0  0  0
   16.8946   -2.8237   -3.9746 C   0  0  0  0  0  0  0  0  0  0  0  0
   14.0048   -1.4117   -4.2292 C   0  0  0  0  0  0  0  0  0  0  0  0
   14.1227   -2.3408   -5.2182 O   0  0  0  0  0  0  0  0  0  0  0  0
   13.2776   -2.0080   -6.2782 N   0  0  0  0  0  0  0  0  0  0  0  0
   12.6601   -0.8851   -5.9010 C   0  0  0  0  0  0  0  0  0  0  0  0
   11.6329   -0.2821   -6.7689 C   0  0  0  0  0  0  0  0  0  0  0  0
   13.1045   -0.4525   -4.6340 C   0  0  0  0  0  0  0  0  0  0  0  0
   13.7657    0.3279   -0.9272 C   0  0  0  0  0  0  0  0  0  0  0  0
   13.4012    1.6651   -0.2962 C   0  0  1  0  0  0  0  0  0  0  0  0
   13.1041    1.5512    1.0980 O   0  0  0  0  0  0  0  0  0  0  0  0
   14.6527    2.5096   -0.4741 C   0  0  0  0  0  0  0  0  0  0  0  0
   15.4788    2.2794   -6.2367 C   0  0  0  0  0  0  0  0  0  0  0  0
   16.4881    1.3154   -6.2012 C   0  0  0  0  0  0  0  0  0  0  0  0
   16.5012    0.2676   -7.1003 C   0  0  0  0  0  0  0  0  0  0  0  0
   15.5318    0.1820   -8.0754 C   0  0  0  0  0  0  0  0  0  0  0  0
   14.5432    1.1448   -8.1386 C   0  0  0  0  0  0  0  0  0  0  0  0
   14.5016    2.1723   -7.2210 C   0  0  0  0  0  0  0  0  0  0  0  0
   14.4728    6.1836   -8.6385 C   0  0  0  0  0  0  0  0  0  0  0  0
   14.3619    7.6841   -8.8496 C   0  0  0  0  0  0  0  0  0  0  0  0
   12.5021    8.0138   -7.8205 H   0  0  0  0  0  0  0  0  0  0  0  0
   13.5501    9.4250   -7.8711 H   0  0  0  0  0  0  0  0  0  0  0  0
   15.0790    8.4442   -6.2469 H   0  0  0  0  0  0  0  0  0  0  0  0
   13.4456    8.3910   -5.5916 H   0  0  0  0  0  0  0  0  0  0  0  0
   14.6676    6.2555   -5.2338 H   0  0  0  0  0  0  0  0  0  0  0  0
   13.2267    6.0172   -6.2056 H   0  0  0  0  0  0  0  0  0  0  0  0
   17.4691    4.1388   -5.8320 H   0  0  0  0  0  0  0  0  0  0  0  0
   16.5060    5.3839   -5.0948 H   0  0  0  0  0  0  0  0  0  0  0  0
   14.4493    3.8683   -5.2774 H   0  0  0  0  0  0  0  0  0  0  0  0
   16.7186    2.7445   -3.7277 H   0  0  0  0  0  0  0  0  0  0  0  0
   16.3830    2.0537   -1.7108 H   0  0  0  0  0  0  0  0  0  0  0  0
   14.0602   -1.8058   -2.1820 H   0  0  0  0  0  0  0  0  0  0  0  0
   15.0951   -3.7300   -3.2979 H   0  0  0  0  0  0  0  0  0  0  0  0
   16.8895   -2.4069   -1.2158 H   0  0  0  0  0  0  0  0  0  0  0  0
   16.7974   -4.1307   -1.5917 H   0  0  0  0  0  0  0  0  0  0  0  0
   15.4040   -3.3122   -0.8864 H   0  0  0  0  0  0  0  0  0  0  0  0
   17.3429   -3.8166   -4.0785 H   0  0  0  0  0  0  0  0  0  0  0  0
   17.6882   -2.1573   -3.6267 H   0  0  0  0  0  0  0  0  0  0  0  0
   16.5990   -2.5002   -4.9754 H   0  0  0  0  0  0  0  0  0  0  0  0
   10.6694   -0.7627   -6.5886 H   0  0  0  0  0  0  0  0  0  0  0  0
   11.8802   -0.4155   -7.8231 H   0  0  0  0  0  0  0  0  0  0  0  0
   11.5306    0.7879   -6.5748 H   0  0  0  0  0  0  0  0  0  0  0  0
   12.7805    0.4170   -4.0817 H   0  0  0  0  0  0  0  0  0  0  0  0
   12.9133   -0.1041   -1.4575 H   0  0  0  0  0  0  0  0  0  0  0  0
   14.1078   -0.4063   -0.1893 H   0  0  0  0  0  0  0  0  0  0  0  0
   12.5476    2.1218   -0.8089 H   0  0  0  0  0  0  0  0  0  0  0  0
   12.3148    0.9917    1.2131 H   0  0  0  0  0  0  0  0  0  0  0  0
   15.3319    2.3519    0.3718 H   0  0  0  0  0  0  0  0  0  0  0  0
   14.4234    3.5803   -0.4989 H   0  0  0  0  0  0  0  0  0  0  0  0
   17.2850    1.3663   -5.4666 H   0  0  0  0  0  0  0  0  0  0  0  0
   17.2792   -0.4858   -7.0428 H   0  0  0  0  0  0  0  0  0  0  0  0
   15.5494   -0.6407   -8.7801 H   0  0  0  0  0  0  0  0  0  0  0  0
   13.7820    1.0980   -8.9026 H   0  0  0  0  0  0  0  0  0  0  0  0
   13.7047    2.9072   -7.2960 H   0  0  0  0  0  0  0  0  0  0  0  0
   15.1097    5.7450   -9.4118 H   0  0  0  0  0  0  0  0  0  0  0  0
   13.4876    5.7128   -8.7334 H   0  0  0  0  0  0  0  0  0  0  0  0
   13.9009    7.8807   -9.8192 H   0  0  0  0  0  0  0  0  0  0  0  0
   15.3634    8.1273   -8.8718 H   0  0  0  0  0  0  0  0  0  0  0  0
  1 38  1  0  0  0  0
  1 39  1  0  0  0  0
  1  2  1  0  0  0  0
  1 37  1  0  0  0  0
  2 40  1  0  0  0  0
  2 41  1  0  0  0  0
  2  3  1  0  0  0  0
  3 42  1  0  0  0  0
  3 43  1  0  0  0  0
  3  4  1  0  0  0  0
  4 36  1  0  0  0  0
  4  5  1  0  0  0  0
  5  6  2  0  0  0  0
  5  7  1  0  0  0  0
  7 44  1  0  0  0  0
  7 45  1  0  0  0  0
  8  7  1  0  0  0  0
  8 46  1  0  0  0  0
  8 30  1  0  0  0  0
  8  9  1  0  0  0  0
  9 47  1  0  0  0  0
  9 10  1  0  0  0  0
 10 11  2  0  0  0  0
 12 10  1  0  0  0  0
 12 48  1  0  0  0  0
 12 29  1  0  0  0  0
 12 13  1  0  0  0  0
 13 26  1  0  0  0  0
 13 14  1  0  0  0  0
 14 15  2  0  0  0  0
 16 14  1  0  0  0  0
 16 49  1  0  0  0  0
 16 17  1  0  0  0  0
 16 20  1  0  0  0  0
 17 50  1  0  0  0  0
 17 19  1  0  0  0  0
 17 18  1  0  0  0  0
 18 51  1  0  0  0  0
 18 52  1  0  0  0  0
 18 53  1  0  0  0  0
 19 54  1  0  0  0  0
 19 55  1  0  0  0  0
 19 56  1  0  0  0  0
 20 25  2  0  0  0  0
 20 21  1  0  0  0  0
 21 22  1  0  0  0  0
 22 23  2  0  0  0  0
 23 25  1  0  0  0  0
 23 24  1  0  0  0  0
 24 57  1  0  0  0  0
 24 58  1  0  0  0  0
 24 59  1  0  0  0  0
 25 60  1  0  0  0  0
 27 26  1  0  0  0  0
 26 61  1  0  0  0  0
 26 62  1  0  0  0  0
 27 29  1  0  0  0  0
 27 63  1  0  0  0  0
 27 28  1  0  0  0  0
 28 64  1  0  0  0  0
 29 65  1  0  0  0  0
 29 66  1  0  0  0  0
 30 31  1  0  0  0  0
 30 35  2  0  0  0  0
 31 67  1  0  0  0  0
 31 32  2  0  0  0  0
 32 68  1  0  0  0  0
 32 33  1  0  0  0  0
 33 69  1  0  0  0  0
 33 34  2  0  0  0  0
 34 70  1  0  0  0  0
 34 35  1  0  0  0  0
 35 71  1  0  0  0  0
 36 72  1  0  0  0  0
 36 73  1  0  0  0  0
 36 37  1  0  0  0  0
 37 74  1  0  0  0  0
 37 75  1  0  0  0  0
M  ZZC   1 c1
M  ZZC   2 c2
M  ZZC   3 c3
M  ZZC   4 n1
M  ZZC   5 c4
M  ZZC   6 o1
M  ZZC   7 c5
M  ZZC   8 c6
M  ZZC   9 n2
M  ZZC  10 c7
M  ZZC  11 o2
M  ZZC  12 c8
M  ZZC  13 n3
M  ZZC  14 c9
M  ZZC  15 o3
M  ZZC  16 c10
M  ZZC  17 c11
M  ZZC  18 c12
M  ZZC  19 c13
M  ZZC  20 c14
M  ZZC  21 o4
M  ZZC  22 n4
M  ZZC  23 c15
M  ZZC  24 c16
M  ZZC  25 c17
M  ZZC  26 c18
M  ZZC  27 c19
M  ZZC  28 o5
M  ZZC  29 c20
M  ZZC  30 c21
M  ZZC  31 c22
M  ZZC  32 c23
M  ZZC  33 c24
M  ZZC  34 c25
M  ZZC  35 c26
M  ZZC  36 c27
M  ZZC  37 c28
M  ZZC  38 h11
M  ZZC  39 h12
M  ZZC  40 h21
M  ZZC  41 h22
M  ZZC  42 h31
M  ZZC  43 h32
M  ZZC  44 h51
M  ZZC  45 h52
M  ZZC  46 h61
M  ZZC  47 h01
M  ZZC  48 h81
M  ZZC  49 h101
M  ZZC  50 h111
M  ZZC  51 h121
M  ZZC  52 h122
M  ZZC  53 h123
M  ZZC  54 h131
M  ZZC  55 h132
M  ZZC  56 h133
M  ZZC  57 h161
M  ZZC  58 h162
M  ZZC  59 h163
M  ZZC  60 h171
M  ZZC  61 h181
M  ZZC  62 h182
M  ZZC  63 h191
M  ZZC  64 h02
M  ZZC  65 h201
M  ZZC  66 h202
M  ZZC  67 h221
M  ZZC  68 h231
M  ZZC  69 h241
M  ZZC  70 h251
M  ZZC  71 h261
M  ZZC  72 h271
M  ZZC  73 h272
M  ZZC  74 h281
M  ZZC  75 h282
M  ZZM   1 1
M  ZZI   1 112
M  ZZM   2 1
M  ZZI   2 112
M  ZZM   3 1
M  ZZI   3 112
M  ZZM   4 10
M  ZZI   4 192
M  ZZM   5 3
M  ZZI   5 121
M  ZZM   6 7
M  ZZI   6 81
M  ZZM   7 1
M  ZZI   7 112
M  ZZM   8 1
M  ZZI   8 113
M  ZZM   9 10
M  ZZI   9 211
M  ZZM  10 3
M  ZZI  10 121
M  ZZM  11 7
M  ZZI  11 81
M  ZZM  12 1
M  ZZI  12 113
M  ZZM  13 10
M  ZZI  13 192
M  ZZM  14 3
M  ZZI  14 121
M  ZZM  15 7
M  ZZI  15 81
M  ZZM  16 1
M  ZZI  16 113
M  ZZM  17 1
M  ZZI  17 113
M  ZZM  18 1
M  ZZI  18 111
M  ZZM  19 1
M  ZZI  19 111
M  ZZM  20 63
M  ZZI  20 104
M  ZZM  21 59
M  ZZI  21 56
M  ZZM  22 65
M  ZZI  22 207
M  ZZM  23 64
M  ZZI  23 105
M  ZZM  24 1
M  ZZI  24 111
M  ZZM  25 64
M  ZZI  25 105
M  ZZM  26 1
M  ZZI  26 112
M  ZZM  27 1
M  ZZI  27 113
M  ZZM  28 6
M  ZZI  28 60
M  ZZM  29 1
M  ZZI  29 112
M  ZZM  30 37
M  ZZI  30 124
M  ZZM  31 37
M  ZZI  31 125
M  ZZM  32 37
M  ZZI  32 125
M  ZZM  33 37
M  ZZI  33 125
M  ZZM  34 37
M  ZZI  34 125
M  ZZM  35 37
M  ZZI  35 125
M  ZZM  36 1
M  ZZI  36 112
M  ZZM  37 1
M  ZZI  37 112
M  ZZM  38 5
M  ZZI  38 1
M  ZZM  39 5
M  ZZI  39 1
M  ZZM  40 5
M  ZZI  40 1
M  ZZM  41 5
M  ZZI  41 1
M  ZZM  42 5
M  ZZI  42 1
M  ZZM  43 5
M  ZZI  43 1
M  ZZM  44 5
M  ZZI  44 1
M  ZZM  45 5
M  ZZI  45 1
M  ZZM  46 5
M  ZZI  46 1
M  ZZM  47 28
M  ZZI  47 11
M  ZZM  48 5
M  ZZI  48 1
M  ZZM  49 5
M  ZZI  49 1
M  ZZM  50 5
M  ZZI  50 1
M  ZZM  51 5
M  ZZI  51 1
M  ZZM  52 5
M  ZZI  52 1
M  ZZM  53 5
M  ZZI  53 1
M  ZZM  54 5
M  ZZI  54 1
M  ZZM  55 5
M  ZZI  55 1
M  ZZM  56 5
M  ZZI  56 1
M  ZZM  57 5
M  ZZI  57 1
M  ZZM  58 5
M  ZZI  58 1
M  ZZM  59 5
M  ZZI  59 1
M  ZZM  60 5
M  ZZI  60 1
M  ZZM  61 5
M  ZZI  61 1
M  ZZM  62 5
M  ZZI  62 1
M  ZZM  63 5
M  ZZI  63 1
M  ZZM  64 21
M  ZZI  64 20
M  ZZM  65 5
M  ZZI  65 1
M  ZZM  66 5
M  ZZI  66 1
M  ZZM  67 5
M  ZZI  67 1
M  ZZM  68 5
M  ZZI  68 1
M  ZZM  69 5
M  ZZI  69 1
M  ZZM  70 5
M  ZZI  70 1
M  ZZM  71 5
M  ZZI  71 1
M  ZZM  72 5
M  ZZI  72 1
M  ZZM  73 5
M  ZZI  73 1
M  ZZM  74 5
M  ZZI  74 1
M  ZZM  75 5
M  ZZI  75 1
M  END
> <IX>
1

> <NAME>
VHL_5T8E_9.pdb

> <Score>
-7.066955

> <Natom>
75

> <Nflex>
11

> <Hbond>
-3.768016

> <Hphob>
-7.462007

> <VwInt>
-26.991355

> <Dsolv>
17.285918

> <SolEl>
14.789501

> <Eintl>
8.552527

> <RecConf>
ND

> <projPath>
VHL_maps/

> <NAME_>
VHL_5T8E_9.pdb

$$$$
