VHL_4CI3_25.pdb
  MOLSOFT 04032206383D

 65 67  0  0  1  0  0  0  0  0999 V2000
   16.1002   -6.3746   -5.6695 O   0  0  0  0  0  0  0  0  0  0  0  0
   17.2021   -6.0124   -5.2897 C   0  0  0  0  0  0  0  0  0  0  0  0
   17.4906   -4.7640   -4.7695 N   0  0  0  0  0  0  0  0  0  0  0  0
   16.5151   -3.6746   -4.6541 C   0  0  1  0  0  0  0  0  0  0  0  0
   15.8913   -3.5489   -3.2263 C   0  0  0  0  0  0  0  0  0  0  0  0
   14.6646   -2.6234   -3.2601 C   0  0  0  0  0  0  0  0  0  0  0  0
   16.8916   -2.9878   -2.2032 C   0  0  0  0  0  0  0  0  0  0  0  0
   15.4135   -4.9169   -2.7145 C   0  0  0  0  0  0  0  0  0  0  0  0
   17.2088   -2.3820   -5.1266 C   0  0  0  0  0  0  0  0  0  0  0  0
   18.3602   -2.1276   -4.8044 O   0  0  0  0  0  0  0  0  0  0  0  0
   16.4667   -1.4667   -5.8742 N   0  0  0  0  0  0  0  0  0  0  0  0
   17.0267   -0.1669   -6.2249 C   0  0  2  0  0  0  0  0  0  0  0  0
   17.2047    0.8025   -5.0642 C   0  0  0  0  0  0  0  0  0  0  0  0
   16.5497    0.7537   -4.0319 O   0  0  0  0  0  0  0  0  0  0  0  0
   18.1093    1.8013   -5.3711 N   0  0  0  0  0  0  0  0  0  0  0  0
   18.2201    3.0080   -4.5858 C   0  0  0  0  0  0  0  0  0  0  0  0
   17.2774    4.0559   -5.1192 C   0  0  0  0  0  0  0  0  0  0  0  0
   16.0788    4.3323   -4.4692 C   0  0  0  0  0  0  0  0  0  0  0  0
   15.2033    5.2802   -4.9708 C   0  0  0  0  0  0  0  0  0  0  0  0
   15.5000    5.9714   -6.1414 C   0  0  0  0  0  0  0  0  0  0  0  0
   14.6135    7.0102   -6.6446 C   0  0  0  0  0  0  0  0  0  0  0  0
   13.9334    7.1286   -7.8503 C   0  0  0  0  0  0  0  0  0  0  0  0
   13.8982    6.1426   -8.9540 C   0  0  0  0  0  0  0  0  0  0  0  0
   13.2264    8.3042   -8.0071 N   0  0  0  0  0  0  0  0  0  0  0  0
   13.3691    9.0474   -6.9330 C   0  0  0  0  0  0  0  0  0  0  0  0
   14.3154    8.3976   -5.6751 S   0  0  0  0  0  0  0  0  0  0  0  0
   16.6825    5.6730   -6.8099 C   0  0  0  0  0  0  0  0  0  0  0  0
   17.5605    4.7292   -6.3046 C   0  0  0  0  0  0  0  0  0  0  0  0
   16.0362    0.4475   -7.2080 C   0  0  0  0  0  0  0  0  0  0  0  0
   15.3752   -0.7560   -7.8380 C   0  0  1  0  0  0  0  0  0  0  0  0
   16.1753   -1.2325   -8.9293 O   0  0  0  0  0  0  0  0  0  0  0  0
   15.3229   -1.7761   -6.7085 C   0  0  0  0  0  0  0  0  0  0  0  0
   18.3859   -6.9380   -5.3388 C   0  0  0  0  0  0  0  0  0  0  0  0
   18.4388   -4.5782   -4.4670 H   0  0  0  0  0  0  0  0  0  0  0  0
   15.7266   -3.9139   -5.3540 H   0  0  0  0  0  0  0  0  0  0  0  0
   13.9148   -2.9795   -3.9737 H   0  0  0  0  0  0  0  0  0  0  0  0
   14.9288   -1.5998   -3.5379 H   0  0  0  0  0  0  0  0  0  0  0  0
   14.1774   -2.5687   -2.2811 H   0  0  0  0  0  0  0  0  0  0  0  0
   17.8091   -3.5783   -2.1729 H   0  0  0  0  0  0  0  0  0  0  0  0
   16.4715   -2.9912   -1.1921 H   0  0  0  0  0  0  0  0  0  0  0  0
   17.1716   -1.9538   -2.4254 H   0  0  0  0  0  0  0  0  0  0  0  0
   16.2392   -5.6233   -2.5943 H   0  0  0  0  0  0  0  0  0  0  0  0
   14.6873   -5.3636   -3.3965 H   0  0  0  0  0  0  0  0  0  0  0  0
   14.9258   -4.8330   -1.7383 H   0  0  0  0  0  0  0  0  0  0  0  0
   17.9984   -0.3363   -6.6909 H   0  0  0  0  0  0  0  0  0  0  0  0
   18.6445    1.7477   -6.2314 H   0  0  0  0  0  0  0  0  0  0  0  0
   18.0098    2.7856   -3.5340 H   0  0  0  0  0  0  0  0  0  0  0  0
   19.2560    3.3575   -4.6490 H   0  0  0  0  0  0  0  0  0  0  0  0
   15.8156    3.8026   -3.5578 H   0  0  0  0  0  0  0  0  0  0  0  0
   14.2780    5.4746   -4.4357 H   0  0  0  0  0  0  0  0  0  0  0  0
   14.8778    6.0594   -9.4331 H   0  0  0  0  0  0  0  0  0  0  0  0
   13.1757    6.4364   -9.7207 H   0  0  0  0  0  0  0  0  0  0  0  0
   13.6076    5.1540   -8.5863 H   0  0  0  0  0  0  0  0  0  0  0  0
   12.9192   10.0222   -6.8341 H   0  0  0  0  0  0  0  0  0  0  0  0
   16.9421    6.1958   -7.7263 H   0  0  0  0  0  0  0  0  0  0  0  0
   18.4792    4.5224   -6.8460 H   0  0  0  0  0  0  0  0  0  0  0  0
   15.2859    1.0515   -6.6841 H   0  0  0  0  0  0  0  0  0  0  0  0
   16.5380    1.0900   -7.9395 H   0  0  0  0  0  0  0  0  0  0  0  0
   14.3812   -0.5207   -8.2183 H   0  0  0  0  0  0  0  0  0  0  0  0
   17.1091   -1.1764   -8.6540 H   0  0  0  0  0  0  0  0  0  0  0  0
   15.3866   -2.7994   -7.0858 H   0  0  0  0  0  0  0  0  0  0  0  0
   14.4234   -1.6502   -6.0977 H   0  0  0  0  0  0  0  0  0  0  0  0
   18.3812   -7.4747   -6.2914 H   0  0  0  0  0  0  0  0  0  0  0  0
   18.3086   -7.6560   -4.5192 H   0  0  0  0  0  0  0  0  0  0  0  0
   19.3296   -6.3906   -5.2586 H   0  0  0  0  0  0  0  0  0  0  0  0
  1  2  2  0  0  0  0
  2  3  1  0  0  0  0
  2 33  1  0  0  0  0
  4  3  1  0  0  0  0
  3 34  1  0  0  0  0
  4  5  1  0  0  0  0
  4 35  1  0  0  0  0
  4  9  1  0  0  0  0
  5  6  1  0  0  0  0
  5  7  1  0  0  0  0
  5  8  1  0  0  0  0
  6 36  1  0  0  0  0
  6 37  1  0  0  0  0
  6 38  1  0  0  0  0
  7 39  1  0  0  0  0
  7 40  1  0  0  0  0
  7 41  1  0  0  0  0
  8 42  1  0  0  0  0
  8 43  1  0  0  0  0
  8 44  1  0  0  0  0
  9 10  2  0  0  0  0
  9 11  1  0  0  0  0
 11 32  1  0  0  0  0
 12 11  1  0  0  0  0
 12 29  1  0  0  0  0
 12 45  1  0  0  0  0
 12 13  1  0  0  0  0
 13 14  2  0  0  0  0
 13 15  1  0  0  0  0
 15 46  1  0  0  0  0
 15 16  1  0  0  0  0
 16 47  1  0  0  0  0
 16 48  1  0  0  0  0
 16 17  1  0  0  0  0
 17 18  1  0  0  0  0
 17 28  2  0  0  0  0
 18 49  1  0  0  0  0
 18 19  2  0  0  0  0
 19 50  1  0  0  0  0
 19 20  1  0  0  0  0
 20 27  2  0  0  0  0
 20 21  1  0  0  0  0
 21 22  2  0  0  0  0
 21 26  1  0  0  0  0
 22 23  1  0  0  0  0
 22 24  1  0  0  0  0
 23 51  1  0  0  0  0
 23 52  1  0  0  0  0
 23 53  1  0  0  0  0
 24 25  2  0  0  0  0
 25 54  1  0  0  0  0
 25 26  1  0  0  0  0
 27 55  1  0  0  0  0
 27 28  1  0  0  0  0
 28 56  1  0  0  0  0
 30 29  1  0  0  0  0
 29 57  1  0  0  0  0
 29 58  1  0  0  0  0
 30 32  1  0  0  0  0
 30 59  1  0  0  0  0
 30 31  1  0  0  0  0
 31 60  1  0  0  0  0
 32 61  1  0  0  0  0
 32 62  1  0  0  0  0
 33 63  1  0  0  0  0
 33 64  1  0  0  0  0
 33 65  1  0  0  0  0
M  ZZC   1 o1
M  ZZC   2 c1
M  ZZC   3 n1
M  ZZC   4 c2
M  ZZC   5 c3
M  ZZC   6 c4
M  ZZC   7 c5
M  ZZC   8 c6
M  ZZC   9 c7
M  ZZC  10 o2
M  ZZC  11 n2
M  ZZC  12 c8
M  ZZC  13 c9
M  ZZC  14 o3
M  ZZC  15 n3
M  ZZC  16 c10
M  ZZC  17 c11
M  ZZC  18 c12
M  ZZC  19 c13
M  ZZC  20 c14
M  ZZC  21 c15
M  ZZC  22 c16
M  ZZC  23 c17
M  ZZC  24 n4
M  ZZC  25 c18
M  ZZC  26 s1
M  ZZC  27 c19
M  ZZC  28 c20
M  ZZC  29 c21
M  ZZC  30 c22
M  ZZC  31 o4
M  ZZC  32 c23
M  ZZC  33 c24
M  ZZC  34 h11
M  ZZC  35 h21
M  ZZC  36 h41
M  ZZC  37 h42
M  ZZC  38 h43
M  ZZC  39 h51
M  ZZC  40 h52
M  ZZC  41 h53
M  ZZC  42 h61
M  ZZC  43 h62
M  ZZC  44 h63
M  ZZC  45 h81
M  ZZC  46 h31
M  ZZC  47 h101
M  ZZC  48 h102
M  ZZC  49 h121
M  ZZC  50 h131
M  ZZC  51 h171
M  ZZC  52 h172
M  ZZC  53 h173
M  ZZC  54 h181
M  ZZC  55 h191
M  ZZC  56 h201
M  ZZC  57 h211
M  ZZC  58 h212
M  ZZC  59 h221
M  ZZC  60 h01
M  ZZC  61 h231
M  ZZC  62 h232
M  ZZC  63 h241
M  ZZC  64 h242
M  ZZC  65 h243
M  ZZM   1 7
M  ZZI   1 81
M  ZZM   2 3
M  ZZI   2 121
M  ZZM   3 10
M  ZZI   3 211
M  ZZM   4 1
M  ZZI   4 113
M  ZZM   5 1
M  ZZI   5 110
M  ZZM   6 1
M  ZZI   6 111
M  ZZM   7 1
M  ZZI   7 111
M  ZZM   8 1
M  ZZI   8 111
M  ZZM   9 3
M  ZZI   9 121
M  ZZM  10 7
M  ZZI  10 81
M  ZZM  11 10
M  ZZI  11 192
M  ZZM  12 1
M  ZZI  12 113
M  ZZM  13 3
M  ZZI  13 121
M  ZZM  14 7
M  ZZI  14 81
M  ZZM  15 10
M  ZZI  15 211
M  ZZM  16 1
M  ZZI  16 112
M  ZZM  17 37
M  ZZI  17 124
M  ZZM  18 37
M  ZZI  18 125
M  ZZM  19 37
M  ZZI  19 125
M  ZZM  20 37
M  ZZI  20 124
M  ZZM  21 63
M  ZZI  21 104
M  ZZM  22 64
M  ZZI  22 105
M  ZZM  23 1
M  ZZI  23 111
M  ZZM  24 66
M  ZZI  24 222
M  ZZM  25 63
M  ZZI  25 104
M  ZZM  26 44
M  ZZI  26 248
M  ZZM  27 37
M  ZZI  27 125
M  ZZM  28 37
M  ZZI  28 125
M  ZZM  29 1
M  ZZI  29 112
M  ZZM  30 1
M  ZZI  30 113
M  ZZM  31 6
M  ZZI  31 60
M  ZZM  32 1
M  ZZI  32 112
M  ZZM  33 1
M  ZZI  33 111
M  ZZM  34 28
M  ZZI  34 11
M  ZZM  35 5
M  ZZI  35 1
M  ZZM  36 5
M  ZZI  36 1
M  ZZM  37 5
M  ZZI  37 1
M  ZZM  38 5
M  ZZI  38 1
M  ZZM  39 5
M  ZZI  39 1
M  ZZM  40 5
M  ZZI  40 1
M  ZZM  41 5
M  ZZI  41 1
M  ZZM  42 5
M  ZZI  42 1
M  ZZM  43 5
M  ZZI  43 1
M  ZZM  44 5
M  ZZI  44 1
M  ZZM  45 5
M  ZZI  45 1
M  ZZM  46 28
M  ZZI  46 11
M  ZZM  47 5
M  ZZI  47 1
M  ZZM  48 5
M  ZZI  48 1
M  ZZM  49 5
M  ZZI  49 1
M  ZZM  50 5
M  ZZI  50 1
M  ZZM  51 5
M  ZZI  51 1
M  ZZM  52 5
M  ZZI  52 1
M  ZZM  53 5
M  ZZI  53 1
M  ZZM  54 5
M  ZZI  54 1
M  ZZM  55 5
M  ZZI  55 1
M  ZZM  56 5
M  ZZI  56 1
M  ZZM  57 5
M  ZZI  57 1
M  ZZM  58 5
M  ZZI  58 1
M  ZZM  59 5
M  ZZI  59 1
M  ZZM  60 21
M  ZZI  60 20
M  ZZM  61 5
M  ZZI  61 1
M  ZZM  62 5
M  ZZI  62 1
M  ZZM  63 5
M  ZZI  63 1
M  ZZM  64 5
M  ZZI  64 1
M  ZZM  65 5
M  ZZI  65 1
M  END
> <IX>
1

> <NAME>
VHL_4CI3_25.pdb

> <Score>
-24.094761

> <Natom>
65

> <Nflex>
8

> <Hbond>
-7.867808

> <Hphob>
-6.461555

> <VwInt>
-30.532887

> <Dsolv>
21.46146

> <SolEl>
10.940439

> <Eintl>
4.260226

> <RecConf>
ND

> <projPath>
VHL_maps/

> <NAME_>
VHL_4CI3_25.pdb

$$$$
