VHL_5F1H_6.pdb
  MOLSOFT 04032206423D

 70 73  0  0  1  0  0  0  0  0999 V2000
   15.4679    0.0420   -0.2460 F   0  0  0  0  0  0  0  0  0  0  0  0
   14.1537   -0.1002   -0.6809 C   0  0  0  0  0  0  0  0  0  0  0  0
   13.6468    0.9953   -1.5515 C   0  0  0  0  0  0  0  0  0  0  0  0
   12.5009    1.4116   -1.4520 O   0  0  0  0  0  0  0  0  0  0  0  0
   14.5816    1.4611   -2.4541 N   0  0  0  0  0  0  0  0  0  0  0  0
   14.2882    2.5150   -3.4289 C   0  0  1  0  0  0  0  0  0  0  0  0
   14.5628    3.9474   -2.8649 C   0  0  0  0  0  0  0  0  0  0  0  0
   13.5674    4.2808   -1.7427 C   0  0  0  0  0  0  0  0  0  0  0  0
   15.9770    4.1055   -2.2746 C   0  0  0  0  0  0  0  0  0  0  0  0
   14.3613    4.9981   -3.9667 C   0  0  0  0  0  0  0  0  0  0  0  0
   15.0993    2.1782   -4.6964 C   0  0  0  0  0  0  0  0  0  0  0  0
   16.2199    2.6312   -4.8823 O   0  0  0  0  0  0  0  0  0  0  0  0
   14.5404    1.2783   -5.6070 N   0  0  0  0  0  0  0  0  0  0  0  0
   15.2791    0.8838   -6.8029 C   0  0  2  0  0  0  0  0  0  0  0  0
   15.1156    1.8508   -7.9826 C   0  0  0  0  0  0  0  0  0  0  0  0
   15.7363    1.6683   -9.0171 O   0  0  0  0  0  0  0  0  0  0  0  0
   14.2072    2.8824   -7.8310 N   0  0  0  0  0  0  0  0  0  0  0  0
   13.9256    3.8303   -8.8966 C   0  0  0  0  0  0  0  0  0  0  0  0
   14.1356    5.2597   -8.4671 C   0  0  0  0  0  0  0  0  0  0  0  0
   15.3846    5.8775   -8.4291 C   0  0  0  0  0  0  0  0  0  0  0  0
   16.4966    5.2031   -8.9040 O   0  0  0  0  0  0  0  0  0  0  0  0
   15.5463    7.1621   -7.9212 C   0  0  0  0  0  0  0  0  0  0  0  0
   14.4465    7.8729   -7.4510 C   0  0  0  0  0  0  0  0  0  0  0  0
   14.5688    9.1746   -6.8081 C   0  0  0  0  0  0  0  0  0  0  0  0
   14.0291    9.6238   -5.6090 C   0  0  0  0  0  0  0  0  0  0  0  0
   13.2824    8.8169   -4.6151 C   0  0  0  0  0  0  0  0  0  0  0  0
   14.2298   10.9619   -5.3388 N   0  0  0  0  0  0  0  0  0  0  0  0
   14.9907   11.4869   -6.2742 C   0  0  0  0  0  0  0  0  0  0  0  0
   15.4917   10.4346   -7.5256 S   0  0  0  0  0  0  0  0  0  0  0  0
   13.1932    7.2939   -7.5752 C   0  0  0  0  0  0  0  0  0  0  0  0
   13.0453    6.0156   -8.0672 C   0  0  0  0  0  0  0  0  0  0  0  0
   14.7204   -0.4891   -7.1431 C   0  0  0  0  0  0  0  0  0  0  0  0
   13.2712   -0.3946   -6.7024 C   0  0  1  0  0  0  0  0  0  0  0  0
   12.7434   -1.6970   -6.4497 O   0  0  0  0  0  0  0  0  0  0  0  0
   13.3486    0.4606   -5.4426 C   0  0  0  0  0  0  0  0  0  0  0  0
   13.2483   -0.8336    0.2754 C   0  0  0  0  0  0  0  0  0  0  0  0
   13.7373   -1.5197   -0.9648 C   0  0  0  0  0  0  0  0  0  0  0  0
   15.5211    1.0751   -2.4170 H   0  0  0  0  0  0  0  0  0  0  0  0
   13.2257    2.4501   -3.6801 H   0  0  0  0  0  0  0  0  0  0  0  0
   13.6465    5.3278   -1.4324 H   0  0  0  0  0  0  0  0  0  0  0  0
   13.7445    3.6773   -0.8486 H   0  0  0  0  0  0  0  0  0  0  0  0
   12.5347    4.1152   -2.0619 H   0  0  0  0  0  0  0  0  0  0  0  0
   16.1066    5.0978   -1.8301 H   0  0  0  0  0  0  0  0  0  0  0  0
   16.7634    3.9986   -3.0249 H   0  0  0  0  0  0  0  0  0  0  0  0
   16.1727    3.3773   -1.4815 H   0  0  0  0  0  0  0  0  0  0  0  0
   15.0727    4.8914   -4.7898 H   0  0  0  0  0  0  0  0  0  0  0  0
   14.4978    6.0053   -3.5656 H   0  0  0  0  0  0  0  0  0  0  0  0
   13.3545    4.9441   -4.3921 H   0  0  0  0  0  0  0  0  0  0  0  0
   16.3512    0.8287   -6.5819 H   0  0  0  0  0  0  0  0  0  0  0  0
   13.7077    2.9796   -6.9546 H   0  0  0  0  0  0  0  0  0  0  0  0
   14.5132    3.6080   -9.7863 H   0  0  0  0  0  0  0  0  0  0  0  0
   12.8814    3.6713   -9.1845 H   0  0  0  0  0  0  0  0  0  0  0  0
   17.2313    5.8436   -8.9122 H   0  0  0  0  0  0  0  0  0  0  0  0
   16.5393    7.5955   -7.8582 H   0  0  0  0  0  0  0  0  0  0  0  0
   12.2709    8.5967   -4.9669 H   0  0  0  0  0  0  0  0  0  0  0  0
   13.1861    9.3626   -3.6767 H   0  0  0  0  0  0  0  0  0  0  0  0
   13.7857    7.8696   -4.4049 H   0  0  0  0  0  0  0  0  0  0  0  0
   15.2883   12.5255   -6.2610 H   0  0  0  0  0  0  0  0  0  0  0  0
   12.3045    7.8325   -7.2628 H   0  0  0  0  0  0  0  0  0  0  0  0
   12.0494    5.6002   -8.1109 H   0  0  0  0  0  0  0  0  0  0  0  0
   14.8227   -0.7610   -8.1976 H   0  0  0  0  0  0  0  0  0  0  0  0
   15.2352   -1.2693   -6.5695 H   0  0  0  0  0  0  0  0  0  0  0  0
   12.6649    0.0930   -7.4741 H   0  0  0  0  0  0  0  0  0  0  0  0
   11.7873   -1.5985   -6.2922 H   0  0  0  0  0  0  0  0  0  0  0  0
   13.4408   -0.1423   -4.5331 H   0  0  0  0  0  0  0  0  0  0  0  0
   12.4658    1.0919   -5.3410 H   0  0  0  0  0  0  0  0  0  0  0  0
   13.6674   -1.1381    1.2259 H   0  0  0  0  0  0  0  0  0  0  0  0
   12.2025   -0.5610    0.3217 H   0  0  0  0  0  0  0  0  0  0  0  0
   13.0232   -1.7005   -1.7585 H   0  0  0  0  0  0  0  0  0  0  0  0
   14.4868   -2.2932   -0.8549 H   0  0  0  0  0  0  0  0  0  0  0  0
  2  1  1  0  0  0  0
  2 36  1  0  0  0  0
  2  3  1  0  0  0  0
  2 37  1  0  0  0  0
  3  4  2  0  0  0  0
  3  5  1  0  0  0  0
  5 38  1  0  0  0  0
  6  5  1  0  0  0  0
  6 39  1  0  0  0  0
  6  7  1  0  0  0  0
  6 11  1  0  0  0  0
  7  8  1  0  0  0  0
  7  9  1  0  0  0  0
  7 10  1  0  0  0  0
  8 40  1  0  0  0  0
  8 41  1  0  0  0  0
  8 42  1  0  0  0  0
  9 43  1  0  0  0  0
  9 44  1  0  0  0  0
  9 45  1  0  0  0  0
 10 46  1  0  0  0  0
 10 47  1  0  0  0  0
 10 48  1  0  0  0  0
 11 12  2  0  0  0  0
 11 13  1  0  0  0  0
 13 35  1  0  0  0  0
 14 13  1  0  0  0  0
 14 32  1  0  0  0  0
 14 49  1  0  0  0  0
 14 15  1  0  0  0  0
 15 16  2  0  0  0  0
 15 17  1  0  0  0  0
 17 50  1  0  0  0  0
 17 18  1  0  0  0  0
 18 51  1  0  0  0  0
 18 52  1  0  0  0  0
 18 19  1  0  0  0  0
 19 20  2  0  0  0  0
 19 31  1  0  0  0  0
 20 21  1  0  0  0  0
 20 22  1  0  0  0  0
 21 53  1  0  0  0  0
 22 54  1  0  0  0  0
 22 23  2  0  0  0  0
 23 30  1  0  0  0  0
 23 24  1  0  0  0  0
 24 25  2  0  0  0  0
 24 29  1  0  0  0  0
 25 26  1  0  0  0  0
 25 27  1  0  0  0  0
 26 55  1  0  0  0  0
 26 56  1  0  0  0  0
 26 57  1  0  0  0  0
 27 28  2  0  0  0  0
 28 58  1  0  0  0  0
 28 29  1  0  0  0  0
 30 59  1  0  0  0  0
 30 31  2  0  0  0  0
 31 60  1  0  0  0  0
 33 32  1  0  0  0  0
 32 61  1  0  0  0  0
 32 62  1  0  0  0  0
 33 35  1  0  0  0  0
 33 63  1  0  0  0  0
 33 34  1  0  0  0  0
 34 64  1  0  0  0  0
 35 65  1  0  0  0  0
 35 66  1  0  0  0  0
 36 67  1  0  0  0  0
 36 68  1  0  0  0  0
 36 37  1  0  0  0  0
 37 69  1  0  0  0  0
 37 70  1  0  0  0  0
M  ZZC   1 f1
M  ZZC   2 c1
M  ZZC   3 c2
M  ZZC   4 o1
M  ZZC   5 n1
M  ZZC   6 c3
M  ZZC   7 c4
M  ZZC   8 c5
M  ZZC   9 c6
M  ZZC  10 c7
M  ZZC  11 c8
M  ZZC  12 o2
M  ZZC  13 n2
M  ZZC  14 c9
M  ZZC  15 c10
M  ZZC  16 o3
M  ZZC  17 n3
M  ZZC  18 c11
M  ZZC  19 c12
M  ZZC  20 c13
M  ZZC  21 o4
M  ZZC  22 c14
M  ZZC  23 c15
M  ZZC  24 c16
M  ZZC  25 c17
M  ZZC  26 c18
M  ZZC  27 n4
M  ZZC  28 c19
M  ZZC  29 s1
M  ZZC  30 c20
M  ZZC  31 c21
M  ZZC  32 c22
M  ZZC  33 c23
M  ZZC  34 o5
M  ZZC  35 c24
M  ZZC  36 c25
M  ZZC  37 c26
M  ZZC  38 h11
M  ZZC  39 h31
M  ZZC  40 h51
M  ZZC  41 h52
M  ZZC  42 h53
M  ZZC  43 h61
M  ZZC  44 h62
M  ZZC  45 h63
M  ZZC  46 h71
M  ZZC  47 h72
M  ZZC  48 h73
M  ZZC  49 h91
M  ZZC  50 h01
M  ZZC  51 h111
M  ZZC  52 h112
M  ZZC  53 h41
M  ZZC  54 h141
M  ZZC  55 h181
M  ZZC  56 h182
M  ZZC  57 h183
M  ZZC  58 h191
M  ZZC  59 h201
M  ZZC  60 h211
M  ZZC  61 h221
M  ZZC  62 h222
M  ZZC  63 h231
M  ZZC  64 h02
M  ZZC  65 h241
M  ZZC  66 h242
M  ZZC  67 h251
M  ZZC  68 h252
M  ZZC  69 h261
M  ZZC  70 h262
M  ZZM   1 11
M  ZZI   1 90
M  ZZM   2 22
M  ZZI   2 109
M  ZZM   3 3
M  ZZI   3 121
M  ZZM   4 7
M  ZZI   4 81
M  ZZM   5 10
M  ZZI   5 211
M  ZZM   6 1
M  ZZI   6 113
M  ZZM   7 1
M  ZZI   7 110
M  ZZM   8 1
M  ZZI   8 111
M  ZZM   9 1
M  ZZI   9 111
M  ZZM  10 1
M  ZZI  10 111
M  ZZM  11 3
M  ZZI  11 121
M  ZZM  12 7
M  ZZI  12 81
M  ZZM  13 10
M  ZZI  13 192
M  ZZM  14 1
M  ZZI  14 113
M  ZZM  15 3
M  ZZI  15 121
M  ZZM  16 7
M  ZZI  16 81
M  ZZM  17 10
M  ZZI  17 211
M  ZZM  18 1
M  ZZI  18 112
M  ZZM  19 37
M  ZZI  19 124
M  ZZM  20 37
M  ZZI  20 124
M  ZZM  21 6
M  ZZI  21 62
M  ZZM  22 37
M  ZZI  22 125
M  ZZM  23 37
M  ZZI  23 124
M  ZZM  24 63
M  ZZI  24 104
M  ZZM  25 64
M  ZZI  25 105
M  ZZM  26 1
M  ZZI  26 111
M  ZZM  27 66
M  ZZI  27 222
M  ZZM  28 63
M  ZZI  28 104
M  ZZM  29 44
M  ZZI  29 248
M  ZZM  30 37
M  ZZI  30 125
M  ZZM  31 37
M  ZZI  31 125
M  ZZM  32 1
M  ZZI  32 112
M  ZZM  33 1
M  ZZI  33 113
M  ZZM  34 6
M  ZZI  34 60
M  ZZM  35 1
M  ZZI  35 112
M  ZZM  36 22
M  ZZI  36 109
M  ZZM  37 22
M  ZZI  37 109
M  ZZM  38 28
M  ZZI  38 11
M  ZZM  39 5
M  ZZI  39 1
M  ZZM  40 5
M  ZZI  40 1
M  ZZM  41 5
M  ZZI  41 1
M  ZZM  42 5
M  ZZI  42 1
M  ZZM  43 5
M  ZZI  43 1
M  ZZM  44 5
M  ZZI  44 1
M  ZZM  45 5
M  ZZI  45 1
M  ZZM  46 5
M  ZZI  46 1
M  ZZM  47 5
M  ZZI  47 1
M  ZZM  48 5
M  ZZI  48 1
M  ZZM  49 5
M  ZZI  49 1
M  ZZM  50 28
M  ZZI  50 11
M  ZZM  51 5
M  ZZI  51 1
M  ZZM  52 5
M  ZZI  52 1
M  ZZM  53 29
M  ZZI  53 27
M  ZZM  54 5
M  ZZI  54 1
M  ZZM  55 5
M  ZZI  55 1
M  ZZM  56 5
M  ZZI  56 1
M  ZZM  57 5
M  ZZI  57 1
M  ZZM  58 5
M  ZZI  58 1
M  ZZM  59 5
M  ZZI  59 1
M  ZZM  60 5
M  ZZI  60 1
M  ZZM  61 5
M  ZZI  61 1
M  ZZM  62 5
M  ZZI  62 1
M  ZZM  63 5
M  ZZI  63 1
M  ZZM  64 21
M  ZZI  64 20
M  ZZM  65 5
M  ZZI  65 1
M  ZZM  66 5
M  ZZI  66 1
M  ZZM  67 5
M  ZZI  67 1
M  ZZM  68 5
M  ZZI  68 1
M  ZZM  69 5
M  ZZI  69 1
M  ZZM  70 5
M  ZZI  70 1
M  END
> <IX>
1

> <NAME>
VHL_5F1H_6.pdb

> <Score>
-10.499184

> <Natom>
70

> <Nflex>
9

> <Hbond>
-5.958072

> <Hphob>
-5.801763

> <VwInt>
-23.868771

> <Dsolv>
21.595977

> <SolEl>
8.829615

> <Eintl>
8.176938

> <RecConf>
ND

> <projPath>
VHL_maps/

> <NAME_>
VHL_5F1H_6.pdb

$$$$
