VHL_5EHR_9.pdb
  MOLSOFT 04032206403D

 68 70  0  0  1  0  0  0  0  0999 V2000
   15.5502   -4.3772  -15.4545 C   0  0  0  0  0  0  0  0  0  0  0  0
   15.1358   -3.7909  -16.7732 C   0  0  0  0  0  0  0  0  0  0  0  0
   15.3427   -4.3818  -17.8226 O   0  0  0  0  0  0  0  0  0  0  0  0
   14.5497   -2.5433  -16.6743 N   0  0  0  0  0  0  0  0  0  0  0  0
   14.1004   -1.8092  -17.8622 C   0  0  2  0  0  0  0  0  0  0  0  0
   15.1060   -0.6904  -18.2830 C   0  0  0  0  0  0  0  0  0  0  0  0
   16.4947   -1.2997  -18.5381 C   0  0  0  0  0  0  0  0  0  0  0  0
   14.6604   -0.0047  -19.5837 C   0  0  0  0  0  0  0  0  0  0  0  0
   15.2412    0.4006  -17.2086 C   0  0  0  0  0  0  0  0  0  0  0  0
   12.7068   -1.2533  -17.5294 C   0  0  0  0  0  0  0  0  0  0  0  0
   12.5160   -0.6560  -16.4795 O   0  0  0  0  0  0  0  0  0  0  0  0
   11.6791   -1.4489  -18.4566 N   0  0  0  0  0  0  0  0  0  0  0  0
   10.4021   -0.7503  -18.3159 C   0  0  2  0  0  0  0  0  0  0  0  0
    9.5599   -1.1055  -17.0838 C   0  0  0  0  0  0  0  0  0  0  0  0
    9.8887   -1.9392  -16.2516 O   0  0  0  0  0  0  0  0  0  0  0  0
    8.3954   -0.3615  -17.0212 N   0  0  0  0  0  0  0  0  0  0  0  0
    7.3834   -0.5094  -15.9891 C   0  0  1  0  0  0  0  0  0  0  0  0
    7.7750    0.2556  -14.7262 C   0  0  0  0  0  0  0  0  0  0  0  0
    6.0374   -0.0705  -16.5376 C   0  0  0  0  0  0  0  0  0  0  0  0
    4.9943   -0.9860  -16.6537 C   0  0  0  0  0  0  0  0  0  0  0  0
    3.7961   -0.6316  -17.2539 C   0  0  0  0  0  0  0  0  0  0  0  0
    3.6049    0.6483  -17.7607 C   0  0  0  0  0  0  0  0  0  0  0  0
    2.3770    0.9948  -18.4594 C   0  0  0  0  0  0  0  0  0  0  0  0
    2.0866    1.0008  -19.8166 C   0  0  0  0  0  0  0  0  0  0  0  0
    3.0118    0.6526  -20.9190 C   0  0  0  0  0  0  0  0  0  0  0  0
    0.7918    1.3662  -20.1342 N   0  0  0  0  0  0  0  0  0  0  0  0
    0.1364    1.6713  -19.0366 C   0  0  0  0  0  0  0  0  0  0  0  0
    0.9942    1.4907  -17.5726 S   0  0  0  0  0  0  0  0  0  0  0  0
    4.6238    1.5798  -17.6120 C   0  0  0  0  0  0  0  0  0  0  0  0
    5.8174    1.2279  -17.0028 C   0  0  0  0  0  0  0  0  0  0  0  0
    9.6208   -1.1145  -19.5778 C   0  0  0  0  0  0  0  0  0  0  0  0
   10.6941   -1.4305  -20.5978 C   0  0  1  0  0  0  0  0  0  0  0  0
   11.1886   -0.2196  -21.1750 O   0  0  0  0  0  0  0  0  0  0  0  0
   11.7811   -2.0832  -19.7629 C   0  0  0  0  0  0  0  0  0  0  0  0
   15.1651   -3.7923  -14.6167 H   0  0  0  0  0  0  0  0  0  0  0  0
   16.6417   -4.3899  -15.4061 H   0  0  0  0  0  0  0  0  0  0  0  0
   15.1735   -5.4000  -15.3722 H   0  0  0  0  0  0  0  0  0  0  0  0
   14.4041   -2.1208  -15.7577 H   0  0  0  0  0  0  0  0  0  0  0  0
   14.0183   -2.5429  -18.6674 H   0  0  0  0  0  0  0  0  0  0  0  0
   16.9296   -1.7261  -17.6297 H   0  0  0  0  0  0  0  0  0  0  0  0
   17.2013   -0.5477  -18.9040 H   0  0  0  0  0  0  0  0  0  0  0  0
   16.4505   -2.0944  -19.2896 H   0  0  0  0  0  0  0  0  0  0  0  0
   15.3479    0.7959  -19.8719 H   0  0  0  0  0  0  0  0  0  0  0  0
   13.6711    0.4513  -19.4729 H   0  0  0  0  0  0  0  0  0  0  0  0
   14.5916   -0.7099  -20.4176 H   0  0  0  0  0  0  0  0  0  0  0  0
   14.3356    1.0060  -17.1367 H   0  0  0  0  0  0  0  0  0  0  0  0
   16.0548    1.0940  -17.4433 H   0  0  0  0  0  0  0  0  0  0  0  0
   15.4424   -0.0191  -16.2187 H   0  0  0  0  0  0  0  0  0  0  0  0
   10.6221    0.3224  -18.2947 H   0  0  0  0  0  0  0  0  0  0  0  0
    8.2351    0.3426  -17.7312 H   0  0  0  0  0  0  0  0  0  0  0  0
    7.3419   -1.5732  -15.7315 H   0  0  0  0  0  0  0  0  0  0  0  0
    8.7191   -0.1165  -14.3158 H   0  0  0  0  0  0  0  0  0  0  0  0
    7.0092    0.1593  -13.9500 H   0  0  0  0  0  0  0  0  0  0  0  0
    7.9152    1.3203  -14.9312 H   0  0  0  0  0  0  0  0  0  0  0  0
    5.1193   -2.0057  -16.3000 H   0  0  0  0  0  0  0  0  0  0  0  0
    3.0122   -1.3776  -17.3476 H   0  0  0  0  0  0  0  0  0  0  0  0
    3.8359    1.3695  -20.9730 H   0  0  0  0  0  0  0  0  0  0  0  0
    2.4969    0.6618  -21.8842 H   0  0  0  0  0  0  0  0  0  0  0  0
    3.4321   -0.3467  -20.7744 H   0  0  0  0  0  0  0  0  0  0  0  0
   -0.8894    2.0107  -19.0487 H   0  0  0  0  0  0  0  0  0  0  0  0
    4.4918    2.5917  -17.9836 H   0  0  0  0  0  0  0  0  0  0  0  0
    6.5975    1.9782  -16.9216 H   0  0  0  0  0  0  0  0  0  0  0  0
    9.0020   -2.0037  -19.4065 H   0  0  0  0  0  0  0  0  0  0  0  0
    8.9626   -0.2979  -19.8946 H   0  0  0  0  0  0  0  0  0  0  0  0
   10.3448   -2.0783  -21.4083 H   0  0  0  0  0  0  0  0  0  0  0  0
   10.4566    0.1979  -21.6621 H   0  0  0  0  0  0  0  0  0  0  0  0
   12.7690   -1.9578  -20.2066 H   0  0  0  0  0  0  0  0  0  0  0  0
   11.5832   -3.1508  -19.6285 H   0  0  0  0  0  0  0  0  0  0  0  0
  1 35  1  0  0  0  0
  1 36  1  0  0  0  0
  1 37  1  0  0  0  0
  1  2  1  0  0  0  0
  2  3  2  0  0  0  0
  2  4  1  0  0  0  0
  4 38  1  0  0  0  0
  5  4  1  0  0  0  0
  5 39  1  0  0  0  0
  5  6  1  0  0  0  0
  5 10  1  0  0  0  0
  6  7  1  0  0  0  0
  6  8  1  0  0  0  0
  6  9  1  0  0  0  0
  7 40  1  0  0  0  0
  7 41  1  0  0  0  0
  7 42  1  0  0  0  0
  8 43  1  0  0  0  0
  8 44  1  0  0  0  0
  8 45  1  0  0  0  0
  9 46  1  0  0  0  0
  9 47  1  0  0  0  0
  9 48  1  0  0  0  0
 10 11  2  0  0  0  0
 10 12  1  0  0  0  0
 12 34  1  0  0  0  0
 13 12  1  0  0  0  0
 13 31  1  0  0  0  0
 13 49  1  0  0  0  0
 13 14  1  0  0  0  0
 14 15  2  0  0  0  0
 14 16  1  0  0  0  0
 16 50  1  0  0  0  0
 17 16  1  0  0  0  0
 17 51  1  0  0  0  0
 17 18  1  0  0  0  0
 17 19  1  0  0  0  0
 18 52  1  0  0  0  0
 18 53  1  0  0  0  0
 18 54  1  0  0  0  0
 19 20  1  0  0  0  0
 19 30  2  0  0  0  0
 20 55  1  0  0  0  0
 20 21  2  0  0  0  0
 21 56  1  0  0  0  0
 21 22  1  0  0  0  0
 22 29  2  0  0  0  0
 22 23  1  0  0  0  0
 23 24  2  0  0  0  0
 23 28  1  0  0  0  0
 24 25  1  0  0  0  0
 24 26  1  0  0  0  0
 25 57  1  0  0  0  0
 25 58  1  0  0  0  0
 25 59  1  0  0  0  0
 26 27  2  0  0  0  0
 27 60  1  0  0  0  0
 27 28  1  0  0  0  0
 29 61  1  0  0  0  0
 29 30  1  0  0  0  0
 30 62  1  0  0  0  0
 32 31  1  0  0  0  0
 31 63  1  0  0  0  0
 31 64  1  0  0  0  0
 32 34  1  0  0  0  0
 32 65  1  0  0  0  0
 32 33  1  0  0  0  0
 33 66  1  0  0  0  0
 34 67  1  0  0  0  0
 34 68  1  0  0  0  0
M  ZZC   1 c1
M  ZZC   2 c2
M  ZZC   3 o1
M  ZZC   4 n1
M  ZZC   5 c3
M  ZZC   6 c4
M  ZZC   7 c5
M  ZZC   8 c6
M  ZZC   9 c7
M  ZZC  10 c8
M  ZZC  11 o2
M  ZZC  12 n2
M  ZZC  13 c9
M  ZZC  14 c10
M  ZZC  15 o3
M  ZZC  16 n3
M  ZZC  17 c11
M  ZZC  18 c12
M  ZZC  19 c13
M  ZZC  20 c14
M  ZZC  21 c15
M  ZZC  22 c16
M  ZZC  23 c17
M  ZZC  24 c18
M  ZZC  25 c19
M  ZZC  26 n4
M  ZZC  27 c20
M  ZZC  28 s1
M  ZZC  29 c21
M  ZZC  30 c22
M  ZZC  31 c23
M  ZZC  32 c24
M  ZZC  33 o4
M  ZZC  34 c25
M  ZZC  35 h11
M  ZZC  36 h12
M  ZZC  37 h13
M  ZZC  38 h01
M  ZZC  39 h31
M  ZZC  40 h51
M  ZZC  41 h52
M  ZZC  42 h53
M  ZZC  43 h61
M  ZZC  44 h62
M  ZZC  45 h63
M  ZZC  46 h71
M  ZZC  47 h72
M  ZZC  48 h73
M  ZZC  49 h91
M  ZZC  50 h02
M  ZZC  51 h111
M  ZZC  52 h121
M  ZZC  53 h122
M  ZZC  54 h123
M  ZZC  55 h141
M  ZZC  56 h151
M  ZZC  57 h191
M  ZZC  58 h192
M  ZZC  59 h193
M  ZZC  60 h201
M  ZZC  61 h211
M  ZZC  62 h221
M  ZZC  63 h231
M  ZZC  64 h232
M  ZZC  65 h241
M  ZZC  66 h41
M  ZZC  67 h251
M  ZZC  68 h252
M  ZZM   1 1
M  ZZI   1 111
M  ZZM   2 3
M  ZZI   2 121
M  ZZM   3 7
M  ZZI   3 81
M  ZZM   4 10
M  ZZI   4 211
M  ZZM   5 1
M  ZZI   5 113
M  ZZM   6 1
M  ZZI   6 110
M  ZZM   7 1
M  ZZI   7 111
M  ZZM   8 1
M  ZZI   8 111
M  ZZM   9 1
M  ZZI   9 111
M  ZZM  10 3
M  ZZI  10 121
M  ZZM  11 7
M  ZZI  11 81
M  ZZM  12 10
M  ZZI  12 192
M  ZZM  13 1
M  ZZI  13 113
M  ZZM  14 3
M  ZZI  14 121
M  ZZM  15 7
M  ZZI  15 81
M  ZZM  16 10
M  ZZI  16 211
M  ZZM  17 1
M  ZZI  17 113
M  ZZM  18 1
M  ZZI  18 111
M  ZZM  19 37
M  ZZI  19 124
M  ZZM  20 37
M  ZZI  20 125
M  ZZM  21 37
M  ZZI  21 125
M  ZZM  22 37
M  ZZI  22 124
M  ZZM  23 63
M  ZZI  23 104
M  ZZM  24 64
M  ZZI  24 105
M  ZZM  25 1
M  ZZI  25 111
M  ZZM  26 66
M  ZZI  26 222
M  ZZM  27 63
M  ZZI  27 104
M  ZZM  28 44
M  ZZI  28 248
M  ZZM  29 37
M  ZZI  29 125
M  ZZM  30 37
M  ZZI  30 125
M  ZZM  31 1
M  ZZI  31 112
M  ZZM  32 1
M  ZZI  32 113
M  ZZM  33 6
M  ZZI  33 60
M  ZZM  34 1
M  ZZI  34 112
M  ZZM  35 5
M  ZZI  35 1
M  ZZM  36 5
M  ZZI  36 1
M  ZZM  37 5
M  ZZI  37 1
M  ZZM  38 28
M  ZZI  38 11
M  ZZM  39 5
M  ZZI  39 1
M  ZZM  40 5
M  ZZI  40 1
M  ZZM  41 5
M  ZZI  41 1
M  ZZM  42 5
M  ZZI  42 1
M  ZZM  43 5
M  ZZI  43 1
M  ZZM  44 5
M  ZZI  44 1
M  ZZM  45 5
M  ZZI  45 1
M  ZZM  46 5
M  ZZI  46 1
M  ZZM  47 5
M  ZZI  47 1
M  ZZM  48 5
M  ZZI  48 1
M  ZZM  49 5
M  ZZI  49 1
M  ZZM  50 28
M  ZZI  50 11
M  ZZM  51 5
M  ZZI  51 1
M  ZZM  52 5
M  ZZI  52 1
M  ZZM  53 5
M  ZZI  53 1
M  ZZM  54 5
M  ZZI  54 1
M  ZZM  55 5
M  ZZI  55 1
M  ZZM  56 5
M  ZZI  56 1
M  ZZM  57 5
M  ZZI  57 1
M  ZZM  58 5
M  ZZI  58 1
M  ZZM  59 5
M  ZZI  59 1
M  ZZM  60 5
M  ZZI  60 1
M  ZZM  61 5
M  ZZI  61 1
M  ZZM  62 5
M  ZZI  62 1
M  ZZM  63 5
M  ZZI  63 1
M  ZZM  64 5
M  ZZI  64 1
M  ZZM  65 5
M  ZZI  65 1
M  ZZM  66 21
M  ZZI  66 20
M  ZZM  67 5
M  ZZI  67 1
M  ZZM  68 5
M  ZZI  68 1
M  END
> <IX>
1

> <NAME>
VHL_5EHR_9.pdb

> <Score>
-15.419573

> <Natom>
68

> <Nflex>
8

> <Hbond>
-4.044539

> <Hphob>
-6.278453

> <VwInt>
-30.95487

> <Dsolv>
16.396064

> <SolEl>
12.963331

> <Eintl>
7.20283

> <RecConf>
ND

> <projPath>
VHL_maps/

> <NAME_>
VHL_5EHR_9.pdb

$$$$
