VHL_5T8E_60.pdb
  MOLSOFT 04032206453D

 74 77  0  0  1  0  0  0  0  0999 V2000
   13.6568    6.9218   -8.7666 C   0  0  0  0  0  0  0  0  0  0  0  0
   13.6204    5.6010   -8.1873 N   0  0  0  0  0  0  0  0  0  0  0  0
   14.6309    4.6895   -8.4067 C   0  0  0  0  0  0  0  0  0  0  0  0
   15.6310    4.9179   -9.0718 O   0  0  0  0  0  0  0  0  0  0  0  0
   14.4082    3.3545   -7.7390 C   0  0  0  0  0  0  0  0  0  0  0  0
   15.5312    3.1001   -6.7154 C   0  0  2  0  0  0  0  0  0  0  0  0
   15.6789    1.6865   -6.4106 N   0  0  0  0  0  0  0  0  0  0  0  0
   16.0879    0.7782   -7.3647 C   0  0  0  0  0  0  0  0  0  0  0  0
   16.3602    1.0918   -8.5146 O   0  0  0  0  0  0  0  0  0  0  0  0
   15.9651   -0.6853   -6.9576 C   0  0  1  0  0  0  0  0  0  0  0  0
   15.8309   -0.9787   -5.5327 N   0  0  0  0  0  0  0  0  0  0  0  0
   16.9540   -1.2207   -4.7401 C   0  0  0  0  0  0  0  0  0  0  0  0
   18.0835   -0.9650   -5.1372 O   0  0  0  0  0  0  0  0  0  0  0  0
   16.6988   -1.8969   -3.3890 C   0  0  2  0  0  0  0  0  0  0  0  0
   17.7656   -1.5317   -2.3282 C   0  0  0  0  0  0  0  0  0  0  0  0
   17.5150   -2.2499   -0.9985 C   0  0  0  0  0  0  0  0  0  0  0  0
   17.8080   -0.0230   -2.0733 C   0  0  0  0  0  0  0  0  0  0  0  0
   16.6659   -3.3685   -3.6632 C   0  0  0  0  0  0  0  0  0  0  0  0
   15.7322   -4.0980   -2.9889 O   0  0  0  0  0  0  0  0  0  0  0  0
   15.8373   -5.4408   -3.3639 N   0  0  0  0  0  0  0  0  0  0  0  0
   16.8247   -5.4859   -4.2682 C   0  0  0  0  0  0  0  0  0  0  0  0
   17.2187   -6.7646   -4.9009 C   0  0  0  0  0  0  0  0  0  0  0  0
   17.3748   -4.2066   -4.4912 C   0  0  0  0  0  0  0  0  0  0  0  0
   14.4422   -1.2537   -5.1838 C   0  0  0  0  0  0  0  0  0  0  0  0
   13.6517   -0.9146   -6.4353 C   0  0  2  0  0  0  0  0  0  0  0  0
   12.5060   -1.7457   -6.5861 O   0  0  0  0  0  0  0  0  0  0  0  0
   14.6617   -1.1896   -7.5342 C   0  0  0  0  0  0  0  0  0  0  0  0
   15.2817    3.9029   -5.4553 C   0  0  0  0  0  0  0  0  0  0  0  0
   14.2860    3.5519   -4.5418 C   0  0  0  0  0  0  0  0  0  0  0  0
   14.0437    4.3241   -3.4189 C   0  0  0  0  0  0  0  0  0  0  0  0
   14.7846    5.4756   -3.1881 C   0  0  0  0  0  0  0  0  0  0  0  0
   14.5120    6.3254   -2.0438 C   0  0  0  0  0  0  0  0  0  0  0  0
   13.8983    7.5670   -1.9863 C   0  0  0  0  0  0  0  0  0  0  0  0
   13.3230    8.3204   -3.1227 C   0  0  0  0  0  0  0  0  0  0  0  0
   13.8262    8.1239   -0.7255 N   0  0  0  0  0  0  0  0  0  0  0  0
   14.3912    7.3159    0.1445 C   0  0  0  0  0  0  0  0  0  0  0  0
   15.0122    5.8476   -0.4722 S   0  0  0  0  0  0  0  0  0  0  0  0
   15.7783    5.8290   -4.0917 C   0  0  0  0  0  0  0  0  0  0  0  0
   16.0255    5.0524   -5.2081 C   0  0  0  0  0  0  0  0  0  0  0  0
   14.6576    7.3511   -8.6620 H   0  0  0  0  0  0  0  0  0  0  0  0
   12.9232    7.5514   -8.2559 H   0  0  0  0  0  0  0  0  0  0  0  0
   13.4033    6.8417   -9.8263 H   0  0  0  0  0  0  0  0  0  0  0  0
   12.8236    5.3466   -7.6134 H   0  0  0  0  0  0  0  0  0  0  0  0
   13.4164    3.3038   -7.2793 H   0  0  0  0  0  0  0  0  0  0  0  0
   14.3961    2.6108   -8.5412 H   0  0  0  0  0  0  0  0  0  0  0  0
   16.4939    3.4027   -7.1451 H   0  0  0  0  0  0  0  0  0  0  0  0
   15.5554    1.3599   -5.4584 H   0  0  0  0  0  0  0  0  0  0  0  0
   16.8260   -1.2168   -7.3722 H   0  0  0  0  0  0  0  0  0  0  0  0
   15.7234   -1.5782   -3.0079 H   0  0  0  0  0  0  0  0  0  0  0  0
   18.7553   -1.8363   -2.6787 H   0  0  0  0  0  0  0  0  0  0  0  0
   18.2420   -1.9379   -0.2426 H   0  0  0  0  0  0  0  0  0  0  0  0
   17.6099   -3.3346   -1.0991 H   0  0  0  0  0  0  0  0  0  0  0  0
   16.5153   -2.0337   -0.6083 H   0  0  0  0  0  0  0  0  0  0  0  0
   18.0702    0.5367   -2.9751 H   0  0  0  0  0  0  0  0  0  0  0  0
   18.5597    0.2228   -1.3169 H   0  0  0  0  0  0  0  0  0  0  0  0
   16.8416    0.3486   -1.7180 H   0  0  0  0  0  0  0  0  0  0  0  0
   16.4229   -7.1339   -5.5547 H   0  0  0  0  0  0  0  0  0  0  0  0
   17.4297   -7.5277   -4.1465 H   0  0  0  0  0  0  0  0  0  0  0  0
   18.1197   -6.6426   -5.5095 H   0  0  0  0  0  0  0  0  0  0  0  0
   18.1758   -3.9360   -5.1651 H   0  0  0  0  0  0  0  0  0  0  0  0
   14.3270   -2.3059   -4.9028 H   0  0  0  0  0  0  0  0  0  0  0  0
   14.1385   -0.6390   -4.3302 H   0  0  0  0  0  0  0  0  0  0  0  0
   13.3328    0.1343   -6.4252 H   0  0  0  0  0  0  0  0  0  0  0  0
   11.9062   -1.3031   -7.2154 H   0  0  0  0  0  0  0  0  0  0  0  0
   14.3962   -0.6869   -8.4626 H   0  0  0  0  0  0  0  0  0  0  0  0
   14.7285   -2.2622   -7.7418 H   0  0  0  0  0  0  0  0  0  0  0  0
   13.6739    2.6709   -4.7082 H   0  0  0  0  0  0  0  0  0  0  0  0
   13.2555    4.0306   -2.7309 H   0  0  0  0  0  0  0  0  0  0  0  0
   13.1472    9.3630   -2.8442 H   0  0  0  0  0  0  0  0  0  0  0  0
   12.3715    7.8783   -3.4349 H   0  0  0  0  0  0  0  0  0  0  0  0
   14.0000    8.3287   -3.9815 H   0  0  0  0  0  0  0  0  0  0  0  0
   14.4568    7.5559    1.1961 H   0  0  0  0  0  0  0  0  0  0  0  0
   16.3696    6.7264   -3.9332 H   0  0  0  0  0  0  0  0  0  0  0  0
   16.8027    5.3641   -5.9006 H   0  0  0  0  0  0  0  0  0  0  0  0
  1 40  1  0  0  0  0
  1 41  1  0  0  0  0
  1 42  1  0  0  0  0
  1  2  1  0  0  0  0
  2 43  1  0  0  0  0
  2  3  1  0  0  0  0
  3  4  2  0  0  0  0
  3  5  1  0  0  0  0
  5 44  1  0  0  0  0
  5 45  1  0  0  0  0
  6  5  1  0  0  0  0
  6 46  1  0  0  0  0
  6 28  1  0  0  0  0
  6  7  1  0  0  0  0
  7 47  1  0  0  0  0
  7  8  1  0  0  0  0
  8  9  2  0  0  0  0
 10  8  1  0  0  0  0
 10 48  1  0  0  0  0
 10 27  1  0  0  0  0
 10 11  1  0  0  0  0
 11 24  1  0  0  0  0
 11 12  1  0  0  0  0
 12 13  2  0  0  0  0
 14 12  1  0  0  0  0
 14 49  1  0  0  0  0
 14 15  1  0  0  0  0
 14 18  1  0  0  0  0
 15 50  1  0  0  0  0
 15 17  1  0  0  0  0
 15 16  1  0  0  0  0
 16 51  1  0  0  0  0
 16 52  1  0  0  0  0
 16 53  1  0  0  0  0
 17 54  1  0  0  0  0
 17 55  1  0  0  0  0
 17 56  1  0  0  0  0
 18 23  2  0  0  0  0
 18 19  1  0  0  0  0
 19 20  1  0  0  0  0
 20 21  2  0  0  0  0
 21 23  1  0  0  0  0
 21 22  1  0  0  0  0
 22 57  1  0  0  0  0
 22 58  1  0  0  0  0
 22 59  1  0  0  0  0
 23 60  1  0  0  0  0
 25 24  1  0  0  0  0
 24 61  1  0  0  0  0
 24 62  1  0  0  0  0
 25 27  1  0  0  0  0
 25 63  1  0  0  0  0
 25 26  1  0  0  0  0
 26 64  1  0  0  0  0
 27 65  1  0  0  0  0
 27 66  1  0  0  0  0
 28 29  1  0  0  0  0
 28 39  2  0  0  0  0
 29 67  1  0  0  0  0
 29 30  2  0  0  0  0
 30 68  1  0  0  0  0
 30 31  1  0  0  0  0
 31 38  2  0  0  0  0
 31 32  1  0  0  0  0
 32 33  2  0  0  0  0
 32 37  1  0  0  0  0
 33 34  1  0  0  0  0
 33 35  1  0  0  0  0
 34 69  1  0  0  0  0
 34 70  1  0  0  0  0
 34 71  1  0  0  0  0
 35 36  2  0  0  0  0
 36 72  1  0  0  0  0
 36 37  1  0  0  0  0
 38 73  1  0  0  0  0
 38 39  1  0  0  0  0
 39 74  1  0  0  0  0
M  ZZC   1 c1
M  ZZC   2 n1
M  ZZC   3 c2
M  ZZC   4 o1
M  ZZC   5 c3
M  ZZC   6 c4
M  ZZC   7 n2
M  ZZC   8 c5
M  ZZC   9 o2
M  ZZC  10 c6
M  ZZC  11 n3
M  ZZC  12 c7
M  ZZC  13 o3
M  ZZC  14 c8
M  ZZC  15 c9
M  ZZC  16 c10
M  ZZC  17 c11
M  ZZC  18 c12
M  ZZC  19 o4
M  ZZC  20 n4
M  ZZC  21 c13
M  ZZC  22 c14
M  ZZC  23 c15
M  ZZC  24 c16
M  ZZC  25 c17
M  ZZC  26 o5
M  ZZC  27 c18
M  ZZC  28 c19
M  ZZC  29 c20
M  ZZC  30 c21
M  ZZC  31 c22
M  ZZC  32 c23
M  ZZC  33 c24
M  ZZC  34 c25
M  ZZC  35 n5
M  ZZC  36 c26
M  ZZC  37 s1
M  ZZC  38 c27
M  ZZC  39 c28
M  ZZC  40 h11
M  ZZC  41 h12
M  ZZC  42 h13
M  ZZC  43 h01
M  ZZC  44 h31
M  ZZC  45 h32
M  ZZC  46 h41
M  ZZC  47 h21
M  ZZC  48 h61
M  ZZC  49 h81
M  ZZC  50 h91
M  ZZC  51 h101
M  ZZC  52 h102
M  ZZC  53 h103
M  ZZC  54 h111
M  ZZC  55 h112
M  ZZC  56 h113
M  ZZC  57 h141
M  ZZC  58 h142
M  ZZC  59 h143
M  ZZC  60 h151
M  ZZC  61 h161
M  ZZC  62 h162
M  ZZC  63 h171
M  ZZC  64 h51
M  ZZC  65 h181
M  ZZC  66 h182
M  ZZC  67 h201
M  ZZC  68 h211
M  ZZC  69 h251
M  ZZC  70 h252
M  ZZC  71 h253
M  ZZC  72 h261
M  ZZC  73 h271
M  ZZC  74 h281
M  ZZM   1 1
M  ZZI   1 111
M  ZZM   2 10
M  ZZI   2 211
M  ZZM   3 3
M  ZZI   3 121
M  ZZM   4 7
M  ZZI   4 81
M  ZZM   5 1
M  ZZI   5 112
M  ZZM   6 1
M  ZZI   6 113
M  ZZM   7 10
M  ZZI   7 211
M  ZZM   8 3
M  ZZI   8 121
M  ZZM   9 7
M  ZZI   9 81
M  ZZM  10 1
M  ZZI  10 113
M  ZZM  11 10
M  ZZI  11 192
M  ZZM  12 3
M  ZZI  12 121
M  ZZM  13 7
M  ZZI  13 81
M  ZZM  14 1
M  ZZI  14 113
M  ZZM  15 1
M  ZZI  15 113
M  ZZM  16 1
M  ZZI  16 111
M  ZZM  17 1
M  ZZI  17 111
M  ZZM  18 63
M  ZZI  18 104
M  ZZM  19 59
M  ZZI  19 56
M  ZZM  20 65
M  ZZI  20 207
M  ZZM  21 64
M  ZZI  21 105
M  ZZM  22 1
M  ZZI  22 111
M  ZZM  23 64
M  ZZI  23 105
M  ZZM  24 1
M  ZZI  24 112
M  ZZM  25 1
M  ZZI  25 113
M  ZZM  26 6
M  ZZI  26 60
M  ZZM  27 1
M  ZZI  27 112
M  ZZM  28 37
M  ZZI  28 124
M  ZZM  29 37
M  ZZI  29 125
M  ZZM  30 37
M  ZZI  30 125
M  ZZM  31 37
M  ZZI  31 124
M  ZZM  32 63
M  ZZI  32 104
M  ZZM  33 64
M  ZZI  33 105
M  ZZM  34 1
M  ZZI  34 111
M  ZZM  35 66
M  ZZI  35 222
M  ZZM  36 63
M  ZZI  36 104
M  ZZM  37 44
M  ZZI  37 248
M  ZZM  38 37
M  ZZI  38 125
M  ZZM  39 37
M  ZZI  39 125
M  ZZM  40 5
M  ZZI  40 1
M  ZZM  41 5
M  ZZI  41 1
M  ZZM  42 5
M  ZZI  42 1
M  ZZM  43 28
M  ZZI  43 11
M  ZZM  44 5
M  ZZI  44 1
M  ZZM  45 5
M  ZZI  45 1
M  ZZM  46 5
M  ZZI  46 1
M  ZZM  47 28
M  ZZI  47 11
M  ZZM  48 5
M  ZZI  48 1
M  ZZM  49 5
M  ZZI  49 1
M  ZZM  50 5
M  ZZI  50 1
M  ZZM  51 5
M  ZZI  51 1
M  ZZM  52 5
M  ZZI  52 1
M  ZZM  53 5
M  ZZI  53 1
M  ZZM  54 5
M  ZZI  54 1
M  ZZM  55 5
M  ZZI  55 1
M  ZZM  56 5
M  ZZI  56 1
M  ZZM  57 5
M  ZZI  57 1
M  ZZM  58 5
M  ZZI  58 1
M  ZZM  59 5
M  ZZI  59 1
M  ZZM  60 5
M  ZZI  60 1
M  ZZM  61 5
M  ZZI  61 1
M  ZZM  62 5
M  ZZI  62 1
M  ZZM  63 5
M  ZZI  63 1
M  ZZM  64 21
M  ZZI  64 20
M  ZZM  65 5
M  ZZI  65 1
M  ZZM  66 5
M  ZZI  66 1
M  ZZM  67 5
M  ZZI  67 1
M  ZZM  68 5
M  ZZI  68 1
M  ZZM  69 5
M  ZZI  69 1
M  ZZM  70 5
M  ZZI  70 1
M  ZZM  71 5
M  ZZI  71 1
M  ZZM  72 5
M  ZZI  72 1
M  ZZM  73 5
M  ZZI  73 1
M  ZZM  74 5
M  ZZI  74 1
M  END
> <IX>
1

> <NAME>
VHL_5T8E_60.pdb

> <Score>
-14.82268

> <Natom>
74

> <Nflex>
10

> <Hbond>
-6.720158

> <Hphob>
-6.385123

> <VwInt>
-32.577776

> <Dsolv>
24.254046

> <SolEl>
17.821229

> <Eintl>
5.137637

> <RecConf>
ND

> <projPath>
VHL_maps/

> <NAME_>
VHL_5T8E_60.pdb

$$$$
