VHL_4IM0_17.pdb
  MOLSOFT 04032206383D

 65 67  0  0  1  0  0  0  0  0999 V2000
   15.3332   -5.3508   -3.2947 O   0  0  0  0  0  0  0  0  0  0  0  0
   16.4367   -5.1458   -3.7757 C   0  0  0  0  0  0  0  0  0  0  0  0
   17.0222   -3.9007   -3.8535 N   0  0  0  0  0  0  0  0  0  0  0  0
   16.2802   -2.6743   -3.5479 C   0  0  1  0  0  0  0  0  0  0  0  0
   16.5366   -2.1052   -2.1192 C   0  0  0  0  0  0  0  0  0  0  0  0
   17.9721   -1.5894   -1.9396 C   0  0  0  0  0  0  0  0  0  0  0  0
   15.5681   -0.9447   -1.8421 C   0  0  0  0  0  0  0  0  0  0  0  0
   16.2766   -3.1869   -1.0569 C   0  0  0  0  0  0  0  0  0  0  0  0
   16.6537   -1.7084   -4.6899 C   0  0  0  0  0  0  0  0  0  0  0  0
   17.8269   -1.4774   -4.9592 O   0  0  0  0  0  0  0  0  0  0  0  0
   15.6055   -1.1589   -5.4268 N   0  0  0  0  0  0  0  0  0  0  0  0
   15.8591   -0.3820   -6.6311 C   0  0  2  0  0  0  0  0  0  0  0  0
   16.2011    1.0711   -6.2914 C   0  0  0  0  0  0  0  0  0  0  0  0
   15.5399    1.7446   -5.5123 O   0  0  0  0  0  0  0  0  0  0  0  0
   17.3085    1.5501   -6.9646 N   0  0  0  0  0  0  0  0  0  0  0  0
   17.7945    2.9030   -6.7489 C   0  0  0  0  0  0  0  0  0  0  0  0
   19.2284    3.1238   -7.1693 C   0  0  0  0  0  0  0  0  0  0  0  0
   19.6716    4.3999   -7.5116 C   0  0  0  0  0  0  0  0  0  0  0  0
   20.9980    4.6350   -7.8452 C   0  0  0  0  0  0  0  0  0  0  0  0
   21.9189    3.5951   -7.8473 C   0  0  0  0  0  0  0  0  0  0  0  0
   23.3178    3.8152   -8.1773 C   0  0  0  0  0  0  0  0  0  0  0  0
   24.3807    4.2059   -7.3757 C   0  0  0  0  0  0  0  0  0  0  0  0
   24.3291    4.5445   -5.9356 C   0  0  0  0  0  0  0  0  0  0  0  0
   25.6049    4.2529   -8.0119 N   0  0  0  0  0  0  0  0  0  0  0  0
   25.4579    3.9315   -9.2775 C   0  0  0  0  0  0  0  0  0  0  0  0
   23.8711    3.5578   -9.7827 S   0  0  0  0  0  0  0  0  0  0  0  0
   21.4794    2.3259   -7.5051 C   0  0  0  0  0  0  0  0  0  0  0  0
   20.1625    2.0944   -7.1626 C   0  0  0  0  0  0  0  0  0  0  0  0
   14.5556   -0.4701   -7.4058 C   0  0  0  0  0  0  0  0  0  0  0  0
   13.4876   -0.5939   -6.3290 C   0  0  1  0  0  0  0  0  0  0  0  0
   12.3523   -1.3136   -6.8089 O   0  0  0  0  0  0  0  0  0  0  0  0
   14.1839   -1.3834   -5.2325 C   0  0  0  0  0  0  0  0  0  0  0  0
   17.2740   -6.2511   -4.3659 C   0  0  0  0  0  0  0  0  0  0  0  0
   17.9692   -3.8191   -4.2134 H   0  0  0  0  0  0  0  0  0  0  0  0
   15.2211   -2.9337   -3.6183 H   0  0  0  0  0  0  0  0  0  0  0  0
   18.7046   -2.3450   -2.2269 H   0  0  0  0  0  0  0  0  0  0  0  0
   18.1739   -1.3202   -0.8980 H   0  0  0  0  0  0  0  0  0  0  0  0
   18.1653   -0.6941   -2.5376 H   0  0  0  0  0  0  0  0  0  0  0  0
   14.5245   -1.2702   -1.9084 H   0  0  0  0  0  0  0  0  0  0  0  0
   15.7058   -0.1205   -2.5489 H   0  0  0  0  0  0  0  0  0  0  0  0
   15.7135   -0.5341   -0.8375 H   0  0  0  0  0  0  0  0  0  0  0  0
   15.2673   -3.6022   -1.1459 H   0  0  0  0  0  0  0  0  0  0  0  0
   16.3687   -2.7831   -0.0434 H   0  0  0  0  0  0  0  0  0  0  0  0
   16.9881   -4.0143   -1.1327 H   0  0  0  0  0  0  0  0  0  0  0  0
   16.6828   -0.8337   -7.1962 H   0  0  0  0  0  0  0  0  0  0  0  0
   17.8113    0.9347   -7.5984 H   0  0  0  0  0  0  0  0  0  0  0  0
   17.1309    3.5627   -7.3187 H   0  0  0  0  0  0  0  0  0  0  0  0
   17.6853    3.1538   -5.6883 H   0  0  0  0  0  0  0  0  0  0  0  0
   18.9769    5.2350   -7.5127 H   0  0  0  0  0  0  0  0  0  0  0  0
   21.3097    5.6421   -8.1058 H   0  0  0  0  0  0  0  0  0  0  0  0
   25.3055    4.8847   -5.5790 H   0  0  0  0  0  0  0  0  0  0  0  0
   24.0365    3.6769   -5.3371 H   0  0  0  0  0  0  0  0  0  0  0  0
   23.5994    5.3359   -5.7514 H   0  0  0  0  0  0  0  0  0  0  0  0
   26.2890    3.9040   -9.9675 H   0  0  0  0  0  0  0  0  0  0  0  0
   22.1680    1.4901   -7.5074 H   0  0  0  0  0  0  0  0  0  0  0  0
   19.8731    1.0858   -6.8896 H   0  0  0  0  0  0  0  0  0  0  0  0
   14.3777    0.3842   -8.0676 H   0  0  0  0  0  0  0  0  0  0  0  0
   14.5638   -1.3716   -8.0273 H   0  0  0  0  0  0  0  0  0  0  0  0
   13.1644    0.3872   -5.9635 H   0  0  0  0  0  0  0  0  0  0  0  0
   11.9173   -0.7760   -7.4960 H   0  0  0  0  0  0  0  0  0  0  0  0
   13.9716   -2.4547   -5.3021 H   0  0  0  0  0  0  0  0  0  0  0  0
   13.8821   -1.0445   -4.2377 H   0  0  0  0  0  0  0  0  0  0  0  0
   16.7303   -6.7024   -5.2014 H   0  0  0  0  0  0  0  0  0  0  0  0
   17.4634   -7.0110   -3.6050 H   0  0  0  0  0  0  0  0  0  0  0  0
   18.2342   -5.8815   -4.7372 H   0  0  0  0  0  0  0  0  0  0  0  0
  1  2  2  0  0  0  0
  2  3  1  0  0  0  0
  2 33  1  0  0  0  0
  4  3  1  0  0  0  0
  3 34  1  0  0  0  0
  4  5  1  0  0  0  0
  4 35  1  0  0  0  0
  4  9  1  0  0  0  0
  5  6  1  0  0  0  0
  5  7  1  0  0  0  0
  5  8  1  0  0  0  0
  6 36  1  0  0  0  0
  6 37  1  0  0  0  0
  6 38  1  0  0  0  0
  7 39  1  0  0  0  0
  7 40  1  0  0  0  0
  7 41  1  0  0  0  0
  8 42  1  0  0  0  0
  8 43  1  0  0  0  0
  8 44  1  0  0  0  0
  9 10  2  0  0  0  0
  9 11  1  0  0  0  0
 11 32  1  0  0  0  0
 12 11  1  0  0  0  0
 12 29  1  0  0  0  0
 12 45  1  0  0  0  0
 12 13  1  0  0  0  0
 13 14  2  0  0  0  0
 13 15  1  0  0  0  0
 15 46  1  0  0  0  0
 15 16  1  0  0  0  0
 16 47  1  0  0  0  0
 16 48  1  0  0  0  0
 16 17  1  0  0  0  0
 17 18  1  0  0  0  0
 17 28  2  0  0  0  0
 18 49  1  0  0  0  0
 18 19  2  0  0  0  0
 19 50  1  0  0  0  0
 19 20  1  0  0  0  0
 20 27  2  0  0  0  0
 20 21  1  0  0  0  0
 21 22  2  0  0  0  0
 21 26  1  0  0  0  0
 22 23  1  0  0  0  0
 22 24  1  0  0  0  0
 23 51  1  0  0  0  0
 23 52  1  0  0  0  0
 23 53  1  0  0  0  0
 24 25  2  0  0  0  0
 25 54  1  0  0  0  0
 25 26  1  0  0  0  0
 27 55  1  0  0  0  0
 27 28  1  0  0  0  0
 28 56  1  0  0  0  0
 30 29  1  0  0  0  0
 29 57  1  0  0  0  0
 29 58  1  0  0  0  0
 30 32  1  0  0  0  0
 30 59  1  0  0  0  0
 30 31  1  0  0  0  0
 31 60  1  0  0  0  0
 32 61  1  0  0  0  0
 32 62  1  0  0  0  0
 33 63  1  0  0  0  0
 33 64  1  0  0  0  0
 33 65  1  0  0  0  0
M  ZZC   1 o1
M  ZZC   2 c1
M  ZZC   3 n1
M  ZZC   4 c2
M  ZZC   5 c3
M  ZZC   6 c4
M  ZZC   7 c5
M  ZZC   8 c6
M  ZZC   9 c7
M  ZZC  10 o2
M  ZZC  11 n2
M  ZZC  12 c8
M  ZZC  13 c9
M  ZZC  14 o3
M  ZZC  15 n3
M  ZZC  16 c10
M  ZZC  17 c11
M  ZZC  18 c12
M  ZZC  19 c13
M  ZZC  20 c14
M  ZZC  21 c15
M  ZZC  22 c16
M  ZZC  23 c17
M  ZZC  24 n4
M  ZZC  25 c18
M  ZZC  26 s1
M  ZZC  27 c19
M  ZZC  28 c20
M  ZZC  29 c21
M  ZZC  30 c22
M  ZZC  31 o4
M  ZZC  32 c23
M  ZZC  33 c24
M  ZZC  34 h11
M  ZZC  35 h21
M  ZZC  36 h41
M  ZZC  37 h42
M  ZZC  38 h43
M  ZZC  39 h51
M  ZZC  40 h52
M  ZZC  41 h53
M  ZZC  42 h61
M  ZZC  43 h62
M  ZZC  44 h63
M  ZZC  45 h81
M  ZZC  46 h31
M  ZZC  47 h101
M  ZZC  48 h102
M  ZZC  49 h121
M  ZZC  50 h131
M  ZZC  51 h171
M  ZZC  52 h172
M  ZZC  53 h173
M  ZZC  54 h181
M  ZZC  55 h191
M  ZZC  56 h201
M  ZZC  57 h211
M  ZZC  58 h212
M  ZZC  59 h221
M  ZZC  60 h01
M  ZZC  61 h231
M  ZZC  62 h232
M  ZZC  63 h241
M  ZZC  64 h242
M  ZZC  65 h243
M  ZZM   1 7
M  ZZI   1 81
M  ZZM   2 3
M  ZZI   2 121
M  ZZM   3 10
M  ZZI   3 211
M  ZZM   4 1
M  ZZI   4 113
M  ZZM   5 1
M  ZZI   5 110
M  ZZM   6 1
M  ZZI   6 111
M  ZZM   7 1
M  ZZI   7 111
M  ZZM   8 1
M  ZZI   8 111
M  ZZM   9 3
M  ZZI   9 121
M  ZZM  10 7
M  ZZI  10 81
M  ZZM  11 10
M  ZZI  11 192
M  ZZM  12 1
M  ZZI  12 113
M  ZZM  13 3
M  ZZI  13 121
M  ZZM  14 7
M  ZZI  14 81
M  ZZM  15 10
M  ZZI  15 211
M  ZZM  16 1
M  ZZI  16 112
M  ZZM  17 37
M  ZZI  17 124
M  ZZM  18 37
M  ZZI  18 125
M  ZZM  19 37
M  ZZI  19 125
M  ZZM  20 37
M  ZZI  20 124
M  ZZM  21 63
M  ZZI  21 104
M  ZZM  22 64
M  ZZI  22 105
M  ZZM  23 1
M  ZZI  23 111
M  ZZM  24 66
M  ZZI  24 222
M  ZZM  25 63
M  ZZI  25 104
M  ZZM  26 44
M  ZZI  26 248
M  ZZM  27 37
M  ZZI  27 125
M  ZZM  28 37
M  ZZI  28 125
M  ZZM  29 1
M  ZZI  29 112
M  ZZM  30 1
M  ZZI  30 113
M  ZZM  31 6
M  ZZI  31 60
M  ZZM  32 1
M  ZZI  32 112
M  ZZM  33 1
M  ZZI  33 111
M  ZZM  34 28
M  ZZI  34 11
M  ZZM  35 5
M  ZZI  35 1
M  ZZM  36 5
M  ZZI  36 1
M  ZZM  37 5
M  ZZI  37 1
M  ZZM  38 5
M  ZZI  38 1
M  ZZM  39 5
M  ZZI  39 1
M  ZZM  40 5
M  ZZI  40 1
M  ZZM  41 5
M  ZZI  41 1
M  ZZM  42 5
M  ZZI  42 1
M  ZZM  43 5
M  ZZI  43 1
M  ZZM  44 5
M  ZZI  44 1
M  ZZM  45 5
M  ZZI  45 1
M  ZZM  46 28
M  ZZI  46 11
M  ZZM  47 5
M  ZZI  47 1
M  ZZM  48 5
M  ZZI  48 1
M  ZZM  49 5
M  ZZI  49 1
M  ZZM  50 5
M  ZZI  50 1
M  ZZM  51 5
M  ZZI  51 1
M  ZZM  52 5
M  ZZI  52 1
M  ZZM  53 5
M  ZZI  53 1
M  ZZM  54 5
M  ZZI  54 1
M  ZZM  55 5
M  ZZI  55 1
M  ZZM  56 5
M  ZZI  56 1
M  ZZM  57 5
M  ZZI  57 1
M  ZZM  58 5
M  ZZI  58 1
M  ZZM  59 5
M  ZZI  59 1
M  ZZM  60 21
M  ZZI  60 20
M  ZZM  61 5
M  ZZI  61 1
M  ZZM  62 5
M  ZZI  62 1
M  ZZM  63 5
M  ZZI  63 1
M  ZZM  64 5
M  ZZI  64 1
M  ZZM  65 5
M  ZZI  65 1
M  END
> <IX>
1

> <NAME>
VHL_4IM0_17.pdb

> <Score>
-15.683035

> <Natom>
65

> <Nflex>
8

> <Hbond>
-4.834743

> <Hphob>
-6.284599

> <VwInt>
-32.241493

> <Dsolv>
17.601157

> <SolEl>
18.595629

> <Eintl>
4.545095

> <RecConf>
ND

> <projPath>
VHL_maps/

> <NAME_>
VHL_4IM0_17.pdb

$$$$
