VHL_2JFA_1.pdb
  MOLSOFT 04032206383D

 68 70  0  0  1  0  0  0  0  0999 V2000
   15.8060   -6.2182   -5.4621 O   0  0  0  0  0  0  0  0  0  0  0  0
   16.8887   -5.8968   -5.0039 C   0  0  0  0  0  0  0  0  0  0  0  0
   17.1453   -4.7243   -4.3207 N   0  0  0  0  0  0  0  0  0  0  0  0
   16.1654   -3.6524   -4.0791 C   0  0  1  0  0  0  0  0  0  0  0  0
   15.8582   -3.4799   -2.5622 C   0  0  0  0  0  0  0  0  0  0  0  0
   14.7445   -2.4586   -2.3030 C   0  0  0  0  0  0  0  0  0  0  0  0
   15.3606   -4.8247   -2.0180 C   0  0  0  0  0  0  0  0  0  0  0  0
   17.0897   -3.0325   -1.7620 C   0  0  0  0  0  0  0  0  0  0  0  0
   16.7605   -2.4255   -4.7982 C   0  0  0  0  0  0  0  0  0  0  0  0
   17.9682   -2.2207   -4.7872 O   0  0  0  0  0  0  0  0  0  0  0  0
   15.8964   -1.5737   -5.4912 N   0  0  0  0  0  0  0  0  0  0  0  0
   16.4266   -0.6132   -6.4467 C   0  0  2  0  0  0  0  0  0  0  0  0
   16.9226    0.6660   -5.7693 C   0  0  0  0  0  0  0  0  0  0  0  0
   16.5335    1.0248   -4.6661 O   0  0  0  0  0  0  0  0  0  0  0  0
   17.8173    1.3816   -6.5485 N   0  0  0  0  0  0  0  0  0  0  0  0
   18.4265    2.6314   -6.1121 C   0  0  1  0  0  0  0  0  0  0  0  0
   19.8053    2.7945   -6.7570 C   0  0  0  0  0  0  0  0  0  0  0  0
   17.5006    3.8143   -6.3520 C   0  0  0  0  0  0  0  0  0  0  0  0
   16.5380    4.1433   -5.3988 C   0  0  0  0  0  0  0  0  0  0  0  0
   15.6577    5.1939   -5.5881 C   0  0  0  0  0  0  0  0  0  0  0  0
   15.7130    5.9612   -6.7436 C   0  0  0  0  0  0  0  0  0  0  0  0
   14.7809    7.0556   -6.9650 C   0  0  0  0  0  0  0  0  0  0  0  0
   13.8306    7.2307   -7.9595 C   0  0  0  0  0  0  0  0  0  0  0  0
   13.5077    6.2780   -9.0432 C   0  0  0  0  0  0  0  0  0  0  0  0
   13.1349    8.4210   -7.9014 N   0  0  0  0  0  0  0  0  0  0  0  0
   13.5488    9.1214   -6.8691 C   0  0  0  0  0  0  0  0  0  0  0  0
   14.7657    8.4106   -5.9072 S   0  0  0  0  0  0  0  0  0  0  0  0
   16.6712    5.6486   -7.6992 C   0  0  0  0  0  0  0  0  0  0  0  0
   17.5493    4.5957   -7.5070 C   0  0  0  0  0  0  0  0  0  0  0  0
   15.2675   -0.3544   -7.3961 C   0  0  0  0  0  0  0  0  0  0  0  0
   14.0365   -0.5057   -6.5185 C   0  0  1  0  0  0  0  0  0  0  0  0
   12.9336   -0.9855   -7.2855 O   0  0  0  0  0  0  0  0  0  0  0  0
   14.4459   -1.5266   -5.4663 C   0  0  0  0  0  0  0  0  0  0  0  0
   18.0838   -6.8012   -5.1215 C   0  0  0  0  0  0  0  0  0  0  0  0
   18.1047   -4.5446   -4.0474 H   0  0  0  0  0  0  0  0  0  0  0  0
   15.2420   -3.9423   -4.5782 H   0  0  0  0  0  0  0  0  0  0  0  0
   13.8337   -2.7120   -2.8545 H   0  0  0  0  0  0  0  0  0  0  0  0
   15.0544   -1.4456   -2.5738 H   0  0  0  0  0  0  0  0  0  0  0  0
   14.4729   -2.4248   -1.2427 H   0  0  0  0  0  0  0  0  0  0  0  0
   16.1239   -5.6014   -2.0941 H   0  0  0  0  0  0  0  0  0  0  0  0
   14.4819   -5.1801   -2.5658 H   0  0  0  0  0  0  0  0  0  0  0  0
   15.0779   -4.7425   -0.9662 H   0  0  0  0  0  0  0  0  0  0  0  0
   17.4461   -2.0555   -2.0826 H   0  0  0  0  0  0  0  0  0  0  0  0
   17.9224   -3.7322   -1.8868 H   0  0  0  0  0  0  0  0  0  0  0  0
   16.8782   -2.9699   -0.6900 H   0  0  0  0  0  0  0  0  0  0  0  0
   17.2688   -1.0597   -6.9800 H   0  0  0  0  0  0  0  0  0  0  0  0
   18.1105    0.9888   -7.4380 H   0  0  0  0  0  0  0  0  0  0  0  0
   18.5929    2.5492   -5.0316 H   0  0  0  0  0  0  0  0  0  0  0  0
   20.2913    3.7104   -6.4148 H   0  0  0  0  0  0  0  0  0  0  0  0
   19.7346    2.8392   -7.8484 H   0  0  0  0  0  0  0  0  0  0  0  0
   20.4867    1.9812   -6.4954 H   0  0  0  0  0  0  0  0  0  0  0  0
   16.4607    3.5680   -4.4809 H   0  0  0  0  0  0  0  0  0  0  0  0
   14.9139    5.4008   -4.8238 H   0  0  0  0  0  0  0  0  0  0  0  0
   14.2949    6.2752   -9.8010 H   0  0  0  0  0  0  0  0  0  0  0  0
   12.5692    6.5474   -9.5294 H   0  0  0  0  0  0  0  0  0  0  0  0
   13.3969    5.2609   -8.6555 H   0  0  0  0  0  0  0  0  0  0  0  0
   13.1487   10.0956   -6.6308 H   0  0  0  0  0  0  0  0  0  0  0  0
   16.7459    6.2359   -8.6109 H   0  0  0  0  0  0  0  0  0  0  0  0
   18.2813    4.3994   -8.2817 H   0  0  0  0  0  0  0  0  0  0  0  0
   15.3059    0.6271   -7.8804 H   0  0  0  0  0  0  0  0  0  0  0  0
   15.2540   -1.1051   -8.1949 H   0  0  0  0  0  0  0  0  0  0  0  0
   13.7687    0.4550   -6.0628 H   0  0  0  0  0  0  0  0  0  0  0  0
   12.1135   -0.7126   -6.8373 H   0  0  0  0  0  0  0  0  0  0  0  0
   14.0237   -2.5180   -5.6286 H   0  0  0  0  0  0  0  0  0  0  0  0
   14.1129   -1.1814   -4.4882 H   0  0  0  0  0  0  0  0  0  0  0  0
   17.9789   -7.4283   -6.0118 H   0  0  0  0  0  0  0  0  0  0  0  0
   18.1341   -7.4398   -4.2364 H   0  0  0  0  0  0  0  0  0  0  0  0
   19.0079   -6.2225   -5.2139 H   0  0  0  0  0  0  0  0  0  0  0  0
  1  2  2  0  0  0  0
  2  3  1  0  0  0  0
  2 34  1  0  0  0  0
  4  3  1  0  0  0  0
  3 35  1  0  0  0  0
  4  5  1  0  0  0  0
  4 36  1  0  0  0  0
  4  9  1  0  0  0  0
  5  6  1  0  0  0  0
  5  7  1  0  0  0  0
  5  8  1  0  0  0  0
  6 37  1  0  0  0  0
  6 38  1  0  0  0  0
  6 39  1  0  0  0  0
  7 40  1  0  0  0  0
  7 41  1  0  0  0  0
  7 42  1  0  0  0  0
  8 43  1  0  0  0  0
  8 44  1  0  0  0  0
  8 45  1  0  0  0  0
  9 10  2  0  0  0  0
  9 11  1  0  0  0  0
 11 33  1  0  0  0  0
 12 11  1  0  0  0  0
 12 30  1  0  0  0  0
 12 46  1  0  0  0  0
 12 13  1  0  0  0  0
 13 14  2  0  0  0  0
 13 15  1  0  0  0  0
 15 47  1  0  0  0  0
 16 15  1  0  0  0  0
 16 48  1  0  0  0  0
 16 17  1  0  0  0  0
 16 18  1  0  0  0  0
 17 49  1  0  0  0  0
 17 50  1  0  0  0  0
 17 51  1  0  0  0  0
 18 19  1  0  0  0  0
 18 29  2  0  0  0  0
 19 52  1  0  0  0  0
 19 20  2  0  0  0  0
 20 53  1  0  0  0  0
 20 21  1  0  0  0  0
 21 28  2  0  0  0  0
 21 22  1  0  0  0  0
 22 23  2  0  0  0  0
 22 27  1  0  0  0  0
 23 24  1  0  0  0  0
 23 25  1  0  0  0  0
 24 54  1  0  0  0  0
 24 55  1  0  0  0  0
 24 56  1  0  0  0  0
 25 26  2  0  0  0  0
 26 57  1  0  0  0  0
 26 27  1  0  0  0  0
 28 58  1  0  0  0  0
 28 29  1  0  0  0  0
 29 59  1  0  0  0  0
 31 30  1  0  0  0  0
 30 60  1  0  0  0  0
 30 61  1  0  0  0  0
 31 33  1  0  0  0  0
 31 62  1  0  0  0  0
 31 32  1  0  0  0  0
 32 63  1  0  0  0  0
 33 64  1  0  0  0  0
 33 65  1  0  0  0  0
 34 66  1  0  0  0  0
 34 67  1  0  0  0  0
 34 68  1  0  0  0  0
M  ZZC   1 o1
M  ZZC   2 c1
M  ZZC   3 n1
M  ZZC   4 c2
M  ZZC   5 c3
M  ZZC   6 c4
M  ZZC   7 c5
M  ZZC   8 c6
M  ZZC   9 c7
M  ZZC  10 o2
M  ZZC  11 n2
M  ZZC  12 c8
M  ZZC  13 c9
M  ZZC  14 o3
M  ZZC  15 n3
M  ZZC  16 c10
M  ZZC  17 c11
M  ZZC  18 c12
M  ZZC  19 c13
M  ZZC  20 c14
M  ZZC  21 c15
M  ZZC  22 c16
M  ZZC  23 c17
M  ZZC  24 c18
M  ZZC  25 n4
M  ZZC  26 c19
M  ZZC  27 s1
M  ZZC  28 c20
M  ZZC  29 c21
M  ZZC  30 c22
M  ZZC  31 c23
M  ZZC  32 o4
M  ZZC  33 c24
M  ZZC  34 c25
M  ZZC  35 h11
M  ZZC  36 h21
M  ZZC  37 h41
M  ZZC  38 h42
M  ZZC  39 h43
M  ZZC  40 h51
M  ZZC  41 h52
M  ZZC  42 h53
M  ZZC  43 h61
M  ZZC  44 h62
M  ZZC  45 h63
M  ZZC  46 h81
M  ZZC  47 h31
M  ZZC  48 h101
M  ZZC  49 h111
M  ZZC  50 h112
M  ZZC  51 h113
M  ZZC  52 h131
M  ZZC  53 h141
M  ZZC  54 h181
M  ZZC  55 h182
M  ZZC  56 h183
M  ZZC  57 h191
M  ZZC  58 h201
M  ZZC  59 h211
M  ZZC  60 h221
M  ZZC  61 h222
M  ZZC  62 h231
M  ZZC  63 h01
M  ZZC  64 h241
M  ZZC  65 h242
M  ZZC  66 h251
M  ZZC  67 h252
M  ZZC  68 h253
M  ZZM   1 7
M  ZZI   1 81
M  ZZM   2 3
M  ZZI   2 121
M  ZZM   3 10
M  ZZI   3 211
M  ZZM   4 1
M  ZZI   4 113
M  ZZM   5 1
M  ZZI   5 110
M  ZZM   6 1
M  ZZI   6 111
M  ZZM   7 1
M  ZZI   7 111
M  ZZM   8 1
M  ZZI   8 111
M  ZZM   9 3
M  ZZI   9 121
M  ZZM  10 7
M  ZZI  10 81
M  ZZM  11 10
M  ZZI  11 192
M  ZZM  12 1
M  ZZI  12 113
M  ZZM  13 3
M  ZZI  13 121
M  ZZM  14 7
M  ZZI  14 81
M  ZZM  15 10
M  ZZI  15 211
M  ZZM  16 1
M  ZZI  16 113
M  ZZM  17 1
M  ZZI  17 111
M  ZZM  18 37
M  ZZI  18 124
M  ZZM  19 37
M  ZZI  19 125
M  ZZM  20 37
M  ZZI  20 125
M  ZZM  21 37
M  ZZI  21 124
M  ZZM  22 63
M  ZZI  22 104
M  ZZM  23 64
M  ZZI  23 105
M  ZZM  24 1
M  ZZI  24 111
M  ZZM  25 66
M  ZZI  25 222
M  ZZM  26 63
M  ZZI  26 104
M  ZZM  27 44
M  ZZI  27 248
M  ZZM  28 37
M  ZZI  28 125
M  ZZM  29 37
M  ZZI  29 125
M  ZZM  30 1
M  ZZI  30 112
M  ZZM  31 1
M  ZZI  31 113
M  ZZM  32 6
M  ZZI  32 60
M  ZZM  33 1
M  ZZI  33 112
M  ZZM  34 1
M  ZZI  34 111
M  ZZM  35 28
M  ZZI  35 11
M  ZZM  36 5
M  ZZI  36 1
M  ZZM  37 5
M  ZZI  37 1
M  ZZM  38 5
M  ZZI  38 1
M  ZZM  39 5
M  ZZI  39 1
M  ZZM  40 5
M  ZZI  40 1
M  ZZM  41 5
M  ZZI  41 1
M  ZZM  42 5
M  ZZI  42 1
M  ZZM  43 5
M  ZZI  43 1
M  ZZM  44 5
M  ZZI  44 1
M  ZZM  45 5
M  ZZI  45 1
M  ZZM  46 5
M  ZZI  46 1
M  ZZM  47 28
M  ZZI  47 11
M  ZZM  48 5
M  ZZI  48 1
M  ZZM  49 5
M  ZZI  49 1
M  ZZM  50 5
M  ZZI  50 1
M  ZZM  51 5
M  ZZI  51 1
M  ZZM  52 5
M  ZZI  52 1
M  ZZM  53 5
M  ZZI  53 1
M  ZZM  54 5
M  ZZI  54 1
M  ZZM  55 5
M  ZZI  55 1
M  ZZM  56 5
M  ZZI  56 1
M  ZZM  57 5
M  ZZI  57 1
M  ZZM  58 5
M  ZZI  58 1
M  ZZM  59 5
M  ZZI  59 1
M  ZZM  60 5
M  ZZI  60 1
M  ZZM  61 5
M  ZZI  61 1
M  ZZM  62 5
M  ZZI  62 1
M  ZZM  63 21
M  ZZI  63 20
M  ZZM  64 5
M  ZZI  64 1
M  ZZM  65 5
M  ZZI  65 1
M  ZZM  66 5
M  ZZI  66 1
M  ZZM  67 5
M  ZZI  67 1
M  ZZM  68 5
M  ZZI  68 1
M  END
> <IX>
1

> <NAME>
VHL_2JFA_1.pdb

> <Score>
-3.500181

> <Natom>
68

> <Nflex>
8

> <Hbond>
-5.020824

> <Hphob>
-6.820583

> <VwInt>
-28.208927

> <Dsolv>
22.820976

> <SolEl>
23.023691

> <Eintl>
8.116422

> <RecConf>
ND

> <projPath>
VHL_maps/

> <NAME_>
VHL_2JFA_1.pdb

$$$$
