VHL_5T8E_15.pdb
  MOLSOFT 04032206443D

 75 78  0  0  1  0  0  0  0  0999 V2000
   18.5341   -7.3384   -5.8344 N   0  3  0  0  0  0  0  0  0  0  0  0
   19.2945   -6.0466   -5.7313 C   0  0  0  0  0  0  0  0  0  0  0  0
   18.3521   -4.8419   -5.6663 C   0  0  0  0  0  0  0  0  0  0  0  0
   17.2235   -5.0035   -4.7556 N   0  0  0  0  0  0  0  0  0  0  0  0
   16.7583   -3.8845   -4.0579 C   0  0  0  0  0  0  0  0  0  0  0  0
   17.4429   -2.8861   -3.8855 O   0  0  0  0  0  0  0  0  0  0  0  0
   15.3321   -3.9807   -3.5364 C   0  0  0  0  0  0  0  0  0  0  0  0
   14.6571   -2.6463   -3.1785 C   0  0  2  0  0  0  0  0  0  0  0  0
   15.1065   -1.5279   -3.9915 N   0  0  0  0  0  0  0  0  0  0  0  0
   14.7501   -1.3161   -5.3138 C   0  0  0  0  0  0  0  0  0  0  0  0
   13.9938   -2.0480   -5.9388 O   0  0  0  0  0  0  0  0  0  0  0  0
   15.4001   -0.0582   -5.9085 C   0  0  2  0  0  0  0  0  0  0  0  0
   14.7318    1.1185   -5.3686 N   0  0  0  0  0  0  0  0  0  0  0  0
   15.1116    1.6950   -4.1558 C   0  0  0  0  0  0  0  0  0  0  0  0
   16.0482    1.2546   -3.5017 O   0  0  0  0  0  0  0  0  0  0  0  0
   14.3022    2.9007   -3.6719 C   0  0  2  0  0  0  0  0  0  0  0  0
   15.1389    4.2021   -3.7075 C   0  0  0  0  0  0  0  0  0  0  0  0
   14.3202    5.4057   -3.2281 C   0  0  0  0  0  0  0  0  0  0  0  0
   15.6745    4.5016   -5.1094 C   0  0  0  0  0  0  0  0  0  0  0  0
   13.8102    2.5850   -2.2979 C   0  0  0  0  0  0  0  0  0  0  0  0
   12.4622    2.4588   -2.1623 O   0  0  0  0  0  0  0  0  0  0  0  0
   12.1500    2.2415   -0.8210 N   0  0  0  0  0  0  0  0  0  0  0  0
   13.3262    2.2061   -0.1801 C   0  0  0  0  0  0  0  0  0  0  0  0
   13.3852    2.0173    1.2874 C   0  0  0  0  0  0  0  0  0  0  0  0
   14.4027    2.4075   -1.0700 C   0  0  0  0  0  0  0  0  0  0  0  0
   13.6852    1.5709   -6.2612 C   0  0  0  0  0  0  0  0  0  0  0  0
   13.9210    0.8589   -7.5857 C   0  0  1  0  0  0  0  0  0  0  0  0
   14.0737    1.8124   -8.6411 O   0  0  0  0  0  0  0  0  0  0  0  0
   15.2193    0.0797   -7.4124 C   0  0  0  0  0  0  0  0  0  0  0  0
   14.7198   -2.3026   -1.7035 C   0  0  0  0  0  0  0  0  0  0  0  0
   15.8169   -2.6061   -0.8949 C   0  0  0  0  0  0  0  0  0  0  0  0
   15.8068   -2.3098    0.4569 C   0  0  0  0  0  0  0  0  0  0  0  0
   14.7096   -1.6940    1.0272 C   0  0  0  0  0  0  0  0  0  0  0  0
   13.6278   -1.3598    0.2365 C   0  0  0  0  0  0  0  0  0  0  0  0
   13.6372   -1.6527   -1.1140 C   0  0  0  0  0  0  0  0  0  0  0  0
   16.5153   -6.2757   -4.8566 C   0  0  0  0  0  0  0  0  0  0  0  0
   17.4550   -7.4761   -4.8039 C   0  0  0  0  0  0  0  0  0  0  0  0
   18.1409   -7.4483   -6.7761 H   0  0  0  0  0  0  0  0  0  0  0  0
   19.1920   -8.1223   -5.7146 H   0  0  0  0  0  0  0  0  0  0  0  0
   19.9008   -6.1244   -4.8347 H   0  0  0  0  0  0  0  0  0  0  0  0
   19.9616   -5.9918   -6.5968 H   0  0  0  0  0  0  0  0  0  0  0  0
   18.9070   -3.9282   -5.4447 H   0  0  0  0  0  0  0  0  0  0  0  0
   17.9040   -4.6858   -6.6418 H   0  0  0  0  0  0  0  0  0  0  0  0
   14.7404   -4.4175   -4.3379 H   0  0  0  0  0  0  0  0  0  0  0  0
   15.2928   -4.6866   -2.6992 H   0  0  0  0  0  0  0  0  0  0  0  0
   13.5967   -2.7867   -3.4183 H   0  0  0  0  0  0  0  0  0  0  0  0
   15.7595   -0.8748   -3.5618 H   0  0  0  0  0  0  0  0  0  0  0  0
   16.4635   -0.0595   -5.6399 H   0  0  0  0  0  0  0  0  0  0  0  0
   13.4230    3.0413   -4.3046 H   0  0  0  0  0  0  0  0  0  0  0  0
   16.0043    4.0974   -3.0427 H   0  0  0  0  0  0  0  0  0  0  0  0
   14.9092    6.3263   -3.2817 H   0  0  0  0  0  0  0  0  0  0  0  0
   13.9982    5.2930   -2.1890 H   0  0  0  0  0  0  0  0  0  0  0  0
   13.4249    5.5495   -3.8417 H   0  0  0  0  0  0  0  0  0  0  0  0
   16.2749    5.4165   -5.1085 H   0  0  0  0  0  0  0  0  0  0  0  0
   14.8612    4.6443   -5.8274 H   0  0  0  0  0  0  0  0  0  0  0  0
   16.3173    3.6979   -5.4797 H   0  0  0  0  0  0  0  0  0  0  0  0
   12.4354    1.6462    1.6841 H   0  0  0  0  0  0  0  0  0  0  0  0
   13.6141    2.9623    1.7879 H   0  0  0  0  0  0  0  0  0  0  0  0
   14.1658    1.3023    1.5579 H   0  0  0  0  0  0  0  0  0  0  0  0
   15.4586    2.4468   -0.8439 H   0  0  0  0  0  0  0  0  0  0  0  0
   12.7269    1.2681   -5.8270 H   0  0  0  0  0  0  0  0  0  0  0  0
   13.6987    2.6593   -6.3625 H   0  0  0  0  0  0  0  0  0  0  0  0
   13.0849    0.1938   -7.8251 H   0  0  0  0  0  0  0  0  0  0  0  0
   13.2473    2.3260   -8.6960 H   0  0  0  0  0  0  0  0  0  0  0  0
   16.0561    0.6451   -7.8388 H   0  0  0  0  0  0  0  0  0  0  0  0
   15.1935   -0.8817   -7.9361 H   0  0  0  0  0  0  0  0  0  0  0  0
   16.6992   -3.0853   -1.3057 H   0  0  0  0  0  0  0  0  0  0  0  0
   16.6644   -2.5641    1.0717 H   0  0  0  0  0  0  0  0  0  0  0  0
   14.6986   -1.4677    2.0885 H   0  0  0  0  0  0  0  0  0  0  0  0
   12.7622   -0.8752    0.6770 H   0  0  0  0  0  0  0  0  0  0  0  0
   12.7711   -1.3806   -1.7091 H   0  0  0  0  0  0  0  0  0  0  0  0
   15.7904   -6.3540   -4.0486 H   0  0  0  0  0  0  0  0  0  0  0  0
   15.9706   -6.2766   -5.8038 H   0  0  0  0  0  0  0  0  0  0  0  0
   16.9331   -8.4141   -5.0127 H   0  0  0  0  0  0  0  0  0  0  0  0
   17.9479   -7.5452   -3.8330 H   0  0  0  0  0  0  0  0  0  0  0  0
  1 38  1  0  0  0  0
  1 39  1  0  0  0  0
  1  2  1  0  0  0  0
  1 37  1  0  0  0  0
  2 40  1  0  0  0  0
  2 41  1  0  0  0  0
  2  3  1  0  0  0  0
  3 42  1  0  0  0  0
  3 43  1  0  0  0  0
  3  4  1  0  0  0  0
  4 36  1  0  0  0  0
  4  5  1  0  0  0  0
  5  6  2  0  0  0  0
  5  7  1  0  0  0  0
  7 44  1  0  0  0  0
  7 45  1  0  0  0  0
  8  7  1  0  0  0  0
  8 46  1  0  0  0  0
  8 30  1  0  0  0  0
  8  9  1  0  0  0  0
  9 47  1  0  0  0  0
  9 10  1  0  0  0  0
 10 11  2  0  0  0  0
 12 10  1  0  0  0  0
 12 48  1  0  0  0  0
 12 29  1  0  0  0  0
 12 13  1  0  0  0  0
 13 26  1  0  0  0  0
 13 14  1  0  0  0  0
 14 15  2  0  0  0  0
 16 14  1  0  0  0  0
 16 49  1  0  0  0  0
 16 17  1  0  0  0  0
 16 20  1  0  0  0  0
 17 50  1  0  0  0  0
 17 19  1  0  0  0  0
 17 18  1  0  0  0  0
 18 51  1  0  0  0  0
 18 52  1  0  0  0  0
 18 53  1  0  0  0  0
 19 54  1  0  0  0  0
 19 55  1  0  0  0  0
 19 56  1  0  0  0  0
 20 25  2  0  0  0  0
 20 21  1  0  0  0  0
 21 22  1  0  0  0  0
 22 23  2  0  0  0  0
 23 25  1  0  0  0  0
 23 24  1  0  0  0  0
 24 57  1  0  0  0  0
 24 58  1  0  0  0  0
 24 59  1  0  0  0  0
 25 60  1  0  0  0  0
 27 26  1  0  0  0  0
 26 61  1  0  0  0  0
 26 62  1  0  0  0  0
 27 29  1  0  0  0  0
 27 63  1  0  0  0  0
 27 28  1  0  0  0  0
 28 64  1  0  0  0  0
 29 65  1  0  0  0  0
 29 66  1  0  0  0  0
 30 31  1  0  0  0  0
 30 35  2  0  0  0  0
 31 67  1  0  0  0  0
 31 32  2  0  0  0  0
 32 68  1  0  0  0  0
 32 33  1  0  0  0  0
 33 69  1  0  0  0  0
 33 34  2  0  0  0  0
 34 70  1  0  0  0  0
 34 35  1  0  0  0  0
 35 71  1  0  0  0  0
 36 72  1  0  0  0  0
 36 73  1  0  0  0  0
 36 37  1  0  0  0  0
 37 74  1  0  0  0  0
 37 75  1  0  0  0  0
M  ZZC   1 n1
M  ZZC   2 c1
M  ZZC   3 c2
M  ZZC   4 n2
M  ZZC   5 c3
M  ZZC   6 o1
M  ZZC   7 c4
M  ZZC   8 c5
M  ZZC   9 n3
M  ZZC  10 c6
M  ZZC  11 o2
M  ZZC  12 c7
M  ZZC  13 n4
M  ZZC  14 c8
M  ZZC  15 o3
M  ZZC  16 c9
M  ZZC  17 c10
M  ZZC  18 c11
M  ZZC  19 c12
M  ZZC  20 c13
M  ZZC  21 o4
M  ZZC  22 n5
M  ZZC  23 c14
M  ZZC  24 c15
M  ZZC  25 c16
M  ZZC  26 c17
M  ZZC  27 c18
M  ZZC  28 o5
M  ZZC  29 c19
M  ZZC  30 c20
M  ZZC  31 c21
M  ZZC  32 c22
M  ZZC  33 c23
M  ZZC  34 c24
M  ZZC  35 c25
M  ZZC  36 c26
M  ZZC  37 c27
M  ZZC  38 h11
M  ZZC  39 h12
M  ZZC  40 h01
M  ZZC  41 h02
M  ZZC  42 h21
M  ZZC  43 h22
M  ZZC  44 h41
M  ZZC  45 h42
M  ZZC  46 h51
M  ZZC  47 h31
M  ZZC  48 h71
M  ZZC  49 h91
M  ZZC  50 h101
M  ZZC  51 h111
M  ZZC  52 h112
M  ZZC  53 h113
M  ZZC  54 h121
M  ZZC  55 h122
M  ZZC  56 h123
M  ZZC  57 h151
M  ZZC  58 h152
M  ZZC  59 h153
M  ZZC  60 h161
M  ZZC  61 h171
M  ZZC  62 h172
M  ZZC  63 h181
M  ZZC  64 h03
M  ZZC  65 h191
M  ZZC  66 h192
M  ZZC  67 h211
M  ZZC  68 h221
M  ZZC  69 h231
M  ZZC  70 h241
M  ZZC  71 h251
M  ZZC  72 h261
M  ZZC  73 h262
M  ZZC  74 h271
M  ZZC  75 h272
M  ZZM   1 34
M  ZZI   1 231
M  ZZM   2 1
M  ZZI   2 112
M  ZZM   3 1
M  ZZI   3 112
M  ZZM   4 10
M  ZZI   4 192
M  ZZM   5 3
M  ZZI   5 121
M  ZZM   6 7
M  ZZI   6 81
M  ZZM   7 1
M  ZZI   7 112
M  ZZM   8 1
M  ZZI   8 113
M  ZZM   9 10
M  ZZI   9 211
M  ZZM  10 3
M  ZZI  10 121
M  ZZM  11 7
M  ZZI  11 81
M  ZZM  12 1
M  ZZI  12 113
M  ZZM  13 10
M  ZZI  13 192
M  ZZM  14 3
M  ZZI  14 121
M  ZZM  15 7
M  ZZI  15 81
M  ZZM  16 1
M  ZZI  16 113
M  ZZM  17 1
M  ZZI  17 113
M  ZZM  18 1
M  ZZI  18 111
M  ZZM  19 1
M  ZZI  19 111
M  ZZM  20 63
M  ZZI  20 104
M  ZZM  21 59
M  ZZI  21 56
M  ZZM  22 65
M  ZZI  22 207
M  ZZM  23 64
M  ZZI  23 105
M  ZZM  24 1
M  ZZI  24 111
M  ZZM  25 64
M  ZZI  25 105
M  ZZM  26 1
M  ZZI  26 112
M  ZZM  27 1
M  ZZI  27 113
M  ZZM  28 6
M  ZZI  28 60
M  ZZM  29 1
M  ZZI  29 112
M  ZZM  30 37
M  ZZI  30 124
M  ZZM  31 37
M  ZZI  31 125
M  ZZM  32 37
M  ZZI  32 125
M  ZZM  33 37
M  ZZI  33 125
M  ZZM  34 37
M  ZZI  34 125
M  ZZM  35 37
M  ZZI  35 125
M  ZZM  36 1
M  ZZI  36 112
M  ZZM  37 1
M  ZZI  37 112
M  ZZM  38 36
M  ZZI  38 17
M  ZZM  39 36
M  ZZI  39 17
M  ZZM  40 5
M  ZZI  40 1
M  ZZM  41 5
M  ZZI  41 1
M  ZZM  42 5
M  ZZI  42 1
M  ZZM  43 5
M  ZZI  43 1
M  ZZM  44 5
M  ZZI  44 1
M  ZZM  45 5
M  ZZI  45 1
M  ZZM  46 5
M  ZZI  46 1
M  ZZM  47 28
M  ZZI  47 11
M  ZZM  48 5
M  ZZI  48 1
M  ZZM  49 5
M  ZZI  49 1
M  ZZM  50 5
M  ZZI  50 1
M  ZZM  51 5
M  ZZI  51 1
M  ZZM  52 5
M  ZZI  52 1
M  ZZM  53 5
M  ZZI  53 1
M  ZZM  54 5
M  ZZI  54 1
M  ZZM  55 5
M  ZZI  55 1
M  ZZM  56 5
M  ZZI  56 1
M  ZZM  57 5
M  ZZI  57 1
M  ZZM  58 5
M  ZZI  58 1
M  ZZM  59 5
M  ZZI  59 1
M  ZZM  60 5
M  ZZI  60 1
M  ZZM  61 5
M  ZZI  61 1
M  ZZM  62 5
M  ZZI  62 1
M  ZZM  63 5
M  ZZI  63 1
M  ZZM  64 21
M  ZZI  64 20
M  ZZM  65 5
M  ZZI  65 1
M  ZZM  66 5
M  ZZI  66 1
M  ZZM  67 5
M  ZZI  67 1
M  ZZM  68 5
M  ZZI  68 1
M  ZZM  69 5
M  ZZI  69 1
M  ZZM  70 5
M  ZZI  70 1
M  ZZM  71 5
M  ZZI  71 1
M  ZZM  72 5
M  ZZI  72 1
M  ZZM  73 5
M  ZZI  73 1
M  ZZM  74 5
M  ZZI  74 1
M  ZZM  75 5
M  ZZI  75 1
M  CHG  1   1   1
M  END
> <IX>
1

> <NAME>
VHL_5T8E_15.pdb

> <Score>
-0.614517

> <Natom>
75

> <Nflex>
11

> <Hbond>
-4.749783

> <Hphob>
-6.614983

> <VwInt>
-25.703229

> <Dsolv>
19.289073

> <SolEl>
22.181881

> <Eintl>
9.718096

> <RecConf>
ND

> <projPath>
VHL_maps/

> <NAME_>
VHL_5T8E_15.pdb

$$$$
