VHL_5T8E_11.pdb
  MOLSOFT 04032206453D

 75 78  0  0  1  0  0  0  0  0999 V2000
   15.6673   -1.8275    1.3173 C   0  0  0  0  0  0  0  0  0  0  0  0
   16.2041   -2.9768    0.4674 C   0  0  0  0  0  0  0  0  0  0  0  0
   16.5447   -2.5059   -0.9395 C   0  0  0  0  0  0  0  0  0  0  0  0
   15.3756   -1.8635   -1.5340 N   0  0  0  0  0  0  0  0  0  0  0  0
   14.6480   -2.3296   -2.6297 C   0  0  0  0  0  0  0  0  0  0  0  0
   13.6289   -1.7856   -3.0264 O   0  0  0  0  0  0  0  0  0  0  0  0
   15.1481   -3.5640   -3.3437 C   0  0  0  0  0  0  0  0  0  0  0  0
   16.2305   -3.2340   -4.3901 C   0  0  2  0  0  0  0  0  0  0  0  0
   15.6386   -2.4987   -5.5096 N   0  0  0  0  0  0  0  0  0  0  0  0
   15.5322   -1.1170   -5.5639 C   0  0  0  0  0  0  0  0  0  0  0  0
   16.1081   -0.3684   -4.7860 O   0  0  0  0  0  0  0  0  0  0  0  0
   14.5864   -0.6177   -6.6747 C   0  0  2  0  0  0  0  0  0  0  0  0
   14.5087    0.8359   -6.7238 N   0  0  0  0  0  0  0  0  0  0  0  0
   15.2513    1.6035   -7.6204 C   0  0  0  0  0  0  0  0  0  0  0  0
   15.8738    1.1067   -8.5494 O   0  0  0  0  0  0  0  0  0  0  0  0
   15.2875    3.1169   -7.3821 C   0  0  2  0  0  0  0  0  0  0  0  0
   14.5246    3.9049   -8.4889 C   0  0  0  0  0  0  0  0  0  0  0  0
   14.1704    5.3200   -8.0255 C   0  0  0  0  0  0  0  0  0  0  0  0
   13.2604    3.2055   -8.9816 C   0  0  0  0  0  0  0  0  0  0  0  0
   16.7448    3.4657   -7.2861 C   0  0  0  0  0  0  0  0  0  0  0  0
   17.2099    4.5087   -8.0329 O   0  0  0  0  0  0  0  0  0  0  0  0
   18.5931    4.6230   -7.8678 N   0  0  0  0  0  0  0  0  0  0  0  0
   18.9333    3.6396   -7.0260 C   0  0  0  0  0  0  0  0  0  0  0  0
   20.3480    3.4165   -6.6584 C   0  0  0  0  0  0  0  0  0  0  0  0
   17.8018    2.9068   -6.6044 C   0  0  0  0  0  0  0  0  0  0  0  0
   13.4959    1.3166   -5.8053 C   0  0  0  0  0  0  0  0  0  0  0  0
   12.5615    0.1306   -5.5757 C   0  0  1  0  0  0  0  0  0  0  0  0
   11.2245    0.3779   -6.0228 O   0  0  0  0  0  0  0  0  0  0  0  0
   13.1477   -1.0194   -6.3790 C   0  0  0  0  0  0  0  0  0  0  0  0
   16.9538   -4.4772   -4.8923 C   0  0  0  0  0  0  0  0  0  0  0  0
   16.5029   -5.7846   -4.6907 C   0  0  0  0  0  0  0  0  0  0  0  0
   17.2183   -6.8777   -5.1524 C   0  0  0  0  0  0  0  0  0  0  0  0
   18.4070   -6.6986   -5.8281 C   0  0  0  0  0  0  0  0  0  0  0  0
   18.8666   -5.4180   -6.0523 C   0  0  0  0  0  0  0  0  0  0  0  0
   18.1457   -4.3284   -5.5916 C   0  0  0  0  0  0  0  0  0  0  0  0
   14.8837   -0.7035   -0.7987 C   0  0  0  0  0  0  0  0  0  0  0  0
   14.5175   -1.0978    0.6262 C   0  0  0  0  0  0  0  0  0  0  0  0
   15.3352   -2.2080    2.2884 H   0  0  0  0  0  0  0  0  0  0  0  0
   16.4770   -1.1175    1.5174 H   0  0  0  0  0  0  0  0  0  0  0  0
   17.0892   -3.4128    0.9414 H   0  0  0  0  0  0  0  0  0  0  0  0
   15.4450   -3.7647    0.4126 H   0  0  0  0  0  0  0  0  0  0  0  0
   17.3545   -1.7684   -0.9134 H   0  0  0  0  0  0  0  0  0  0  0  0
   16.9045   -3.3438   -1.5374 H   0  0  0  0  0  0  0  0  0  0  0  0
   15.4831   -4.2926   -2.5997 H   0  0  0  0  0  0  0  0  0  0  0  0
   14.2768   -4.0211   -3.8234 H   0  0  0  0  0  0  0  0  0  0  0  0
   16.9757   -2.5804   -3.9219 H   0  0  0  0  0  0  0  0  0  0  0  0
   15.2587   -3.0390   -6.2765 H   0  0  0  0  0  0  0  0  0  0  0  0
   14.9380   -1.0240   -7.6301 H   0  0  0  0  0  0  0  0  0  0  0  0
   14.8457    3.3461   -6.4086 H   0  0  0  0  0  0  0  0  0  0  0  0
   15.1561    4.0218   -9.3687 H   0  0  0  0  0  0  0  0  0  0  0  0
   13.6212    5.8632   -8.8012 H   0  0  0  0  0  0  0  0  0  0  0  0
   15.0642    5.9051   -7.7944 H   0  0  0  0  0  0  0  0  0  0  0  0
   13.5481    5.3015   -7.1277 H   0  0  0  0  0  0  0  0  0  0  0  0
   12.7412    3.7961   -9.7385 H   0  0  0  0  0  0  0  0  0  0  0  0
   12.5536    3.0574   -8.1622 H   0  0  0  0  0  0  0  0  0  0  0  0
   13.4809    2.2282   -9.4050 H   0  0  0  0  0  0  0  0  0  0  0  0
   20.5332    3.7456   -5.6319 H   0  0  0  0  0  0  0  0  0  0  0  0
   21.0269    3.9637   -7.3196 H   0  0  0  0  0  0  0  0  0  0  0  0
   20.6015    2.3545   -6.7287 H   0  0  0  0  0  0  0  0  0  0  0  0
   17.7723    2.0536   -5.9405 H   0  0  0  0  0  0  0  0  0  0  0  0
   14.0045    1.5946   -4.8759 H   0  0  0  0  0  0  0  0  0  0  0  0
   12.9900    2.1984   -6.1980 H   0  0  0  0  0  0  0  0  0  0  0  0
   12.5081   -0.1022   -4.5102 H   0  0  0  0  0  0  0  0  0  0  0  0
   11.2539    0.7754   -6.9120 H   0  0  0  0  0  0  0  0  0  0  0  0
   12.5889   -1.1428   -7.3125 H   0  0  0  0  0  0  0  0  0  0  0  0
   13.0574   -1.9555   -5.8232 H   0  0  0  0  0  0  0  0  0  0  0  0
   15.5839   -5.9799   -4.1532 H   0  0  0  0  0  0  0  0  0  0  0  0
   16.8501   -7.8834   -4.9770 H   0  0  0  0  0  0  0  0  0  0  0  0
   18.9756   -7.5543   -6.1763 H   0  0  0  0  0  0  0  0  0  0  0  0
   19.8006   -5.2643   -6.5819 H   0  0  0  0  0  0  0  0  0  0  0  0
   18.5343   -3.3330   -5.7701 H   0  0  0  0  0  0  0  0  0  0  0  0
   15.6763    0.0526   -0.7976 H   0  0  0  0  0  0  0  0  0  0  0  0
   14.0150   -0.2619   -1.2965 H   0  0  0  0  0  0  0  0  0  0  0  0
   13.6414   -1.7514    0.6037 H   0  0  0  0  0  0  0  0  0  0  0  0
   14.2329   -0.2111    1.2012 H   0  0  0  0  0  0  0  0  0  0  0  0
  1 38  1  0  0  0  0
  1 39  1  0  0  0  0
  1  2  1  0  0  0  0
  1 37  1  0  0  0  0
  2 40  1  0  0  0  0
  2 41  1  0  0  0  0
  2  3  1  0  0  0  0
  3 42  1  0  0  0  0
  3 43  1  0  0  0  0
  3  4  1  0  0  0  0
  4 36  1  0  0  0  0
  4  5  1  0  0  0  0
  5  6  2  0  0  0  0
  5  7  1  0  0  0  0
  7 44  1  0  0  0  0
  7 45  1  0  0  0  0
  8  7  1  0  0  0  0
  8 46  1  0  0  0  0
  8 30  1  0  0  0  0
  8  9  1  0  0  0  0
  9 47  1  0  0  0  0
  9 10  1  0  0  0  0
 10 11  2  0  0  0  0
 12 10  1  0  0  0  0
 12 48  1  0  0  0  0
 12 29  1  0  0  0  0
 12 13  1  0  0  0  0
 13 26  1  0  0  0  0
 13 14  1  0  0  0  0
 14 15  2  0  0  0  0
 16 14  1  0  0  0  0
 16 49  1  0  0  0  0
 16 17  1  0  0  0  0
 16 20  1  0  0  0  0
 17 50  1  0  0  0  0
 17 19  1  0  0  0  0
 17 18  1  0  0  0  0
 18 51  1  0  0  0  0
 18 52  1  0  0  0  0
 18 53  1  0  0  0  0
 19 54  1  0  0  0  0
 19 55  1  0  0  0  0
 19 56  1  0  0  0  0
 20 25  2  0  0  0  0
 20 21  1  0  0  0  0
 21 22  1  0  0  0  0
 22 23  2  0  0  0  0
 23 25  1  0  0  0  0
 23 24  1  0  0  0  0
 24 57  1  0  0  0  0
 24 58  1  0  0  0  0
 24 59  1  0  0  0  0
 25 60  1  0  0  0  0
 27 26  1  0  0  0  0
 26 61  1  0  0  0  0
 26 62  1  0  0  0  0
 27 29  1  0  0  0  0
 27 63  1  0  0  0  0
 27 28  1  0  0  0  0
 28 64  1  0  0  0  0
 29 65  1  0  0  0  0
 29 66  1  0  0  0  0
 30 31  1  0  0  0  0
 30 35  2  0  0  0  0
 31 67  1  0  0  0  0
 31 32  2  0  0  0  0
 32 68  1  0  0  0  0
 32 33  1  0  0  0  0
 33 69  1  0  0  0  0
 33 34  2  0  0  0  0
 34 70  1  0  0  0  0
 34 35  1  0  0  0  0
 35 71  1  0  0  0  0
 36 72  1  0  0  0  0
 36 73  1  0  0  0  0
 36 37  1  0  0  0  0
 37 74  1  0  0  0  0
 37 75  1  0  0  0  0
M  ZZC   1 c1
M  ZZC   2 c2
M  ZZC   3 c3
M  ZZC   4 n1
M  ZZC   5 c4
M  ZZC   6 o1
M  ZZC   7 c5
M  ZZC   8 c6
M  ZZC   9 n2
M  ZZC  10 c7
M  ZZC  11 o2
M  ZZC  12 c8
M  ZZC  13 n3
M  ZZC  14 c9
M  ZZC  15 o3
M  ZZC  16 c10
M  ZZC  17 c11
M  ZZC  18 c12
M  ZZC  19 c13
M  ZZC  20 c14
M  ZZC  21 o4
M  ZZC  22 n4
M  ZZC  23 c15
M  ZZC  24 c16
M  ZZC  25 c17
M  ZZC  26 c18
M  ZZC  27 c19
M  ZZC  28 o5
M  ZZC  29 c20
M  ZZC  30 c21
M  ZZC  31 c22
M  ZZC  32 c23
M  ZZC  33 c24
M  ZZC  34 c25
M  ZZC  35 c26
M  ZZC  36 c27
M  ZZC  37 c28
M  ZZC  38 h11
M  ZZC  39 h12
M  ZZC  40 h21
M  ZZC  41 h22
M  ZZC  42 h31
M  ZZC  43 h32
M  ZZC  44 h51
M  ZZC  45 h52
M  ZZC  46 h61
M  ZZC  47 h01
M  ZZC  48 h81
M  ZZC  49 h101
M  ZZC  50 h111
M  ZZC  51 h121
M  ZZC  52 h122
M  ZZC  53 h123
M  ZZC  54 h131
M  ZZC  55 h132
M  ZZC  56 h133
M  ZZC  57 h161
M  ZZC  58 h162
M  ZZC  59 h163
M  ZZC  60 h171
M  ZZC  61 h181
M  ZZC  62 h182
M  ZZC  63 h191
M  ZZC  64 h02
M  ZZC  65 h201
M  ZZC  66 h202
M  ZZC  67 h221
M  ZZC  68 h231
M  ZZC  69 h241
M  ZZC  70 h251
M  ZZC  71 h261
M  ZZC  72 h271
M  ZZC  73 h272
M  ZZC  74 h281
M  ZZC  75 h282
M  ZZM   1 1
M  ZZI   1 112
M  ZZM   2 1
M  ZZI   2 112
M  ZZM   3 1
M  ZZI   3 112
M  ZZM   4 10
M  ZZI   4 192
M  ZZM   5 3
M  ZZI   5 121
M  ZZM   6 7
M  ZZI   6 81
M  ZZM   7 1
M  ZZI   7 112
M  ZZM   8 1
M  ZZI   8 113
M  ZZM   9 10
M  ZZI   9 211
M  ZZM  10 3
M  ZZI  10 121
M  ZZM  11 7
M  ZZI  11 81
M  ZZM  12 1
M  ZZI  12 113
M  ZZM  13 10
M  ZZI  13 192
M  ZZM  14 3
M  ZZI  14 121
M  ZZM  15 7
M  ZZI  15 81
M  ZZM  16 1
M  ZZI  16 113
M  ZZM  17 1
M  ZZI  17 113
M  ZZM  18 1
M  ZZI  18 111
M  ZZM  19 1
M  ZZI  19 111
M  ZZM  20 63
M  ZZI  20 104
M  ZZM  21 59
M  ZZI  21 56
M  ZZM  22 65
M  ZZI  22 207
M  ZZM  23 64
M  ZZI  23 105
M  ZZM  24 1
M  ZZI  24 111
M  ZZM  25 64
M  ZZI  25 105
M  ZZM  26 1
M  ZZI  26 112
M  ZZM  27 1
M  ZZI  27 113
M  ZZM  28 6
M  ZZI  28 60
M  ZZM  29 1
M  ZZI  29 112
M  ZZM  30 37
M  ZZI  30 124
M  ZZM  31 37
M  ZZI  31 125
M  ZZM  32 37
M  ZZI  32 125
M  ZZM  33 37
M  ZZI  33 125
M  ZZM  34 37
M  ZZI  34 125
M  ZZM  35 37
M  ZZI  35 125
M  ZZM  36 1
M  ZZI  36 112
M  ZZM  37 1
M  ZZI  37 112
M  ZZM  38 5
M  ZZI  38 1
M  ZZM  39 5
M  ZZI  39 1
M  ZZM  40 5
M  ZZI  40 1
M  ZZM  41 5
M  ZZI  41 1
M  ZZM  42 5
M  ZZI  42 1
M  ZZM  43 5
M  ZZI  43 1
M  ZZM  44 5
M  ZZI  44 1
M  ZZM  45 5
M  ZZI  45 1
M  ZZM  46 5
M  ZZI  46 1
M  ZZM  47 28
M  ZZI  47 11
M  ZZM  48 5
M  ZZI  48 1
M  ZZM  49 5
M  ZZI  49 1
M  ZZM  50 5
M  ZZI  50 1
M  ZZM  51 5
M  ZZI  51 1
M  ZZM  52 5
M  ZZI  52 1
M  ZZM  53 5
M  ZZI  53 1
M  ZZM  54 5
M  ZZI  54 1
M  ZZM  55 5
M  ZZI  55 1
M  ZZM  56 5
M  ZZI  56 1
M  ZZM  57 5
M  ZZI  57 1
M  ZZM  58 5
M  ZZI  58 1
M  ZZM  59 5
M  ZZI  59 1
M  ZZM  60 5
M  ZZI  60 1
M  ZZM  61 5
M  ZZI  61 1
M  ZZM  62 5
M  ZZI  62 1
M  ZZM  63 5
M  ZZI  63 1
M  ZZM  64 21
M  ZZI  64 20
M  ZZM  65 5
M  ZZI  65 1
M  ZZM  66 5
M  ZZI  66 1
M  ZZM  67 5
M  ZZI  67 1
M  ZZM  68 5
M  ZZI  68 1
M  ZZM  69 5
M  ZZI  69 1
M  ZZM  70 5
M  ZZI  70 1
M  ZZM  71 5
M  ZZI  71 1
M  ZZM  72 5
M  ZZI  72 1
M  ZZM  73 5
M  ZZI  73 1
M  ZZM  74 5
M  ZZI  74 1
M  ZZM  75 5
M  ZZI  75 1
M  END
> <IX>
1

> <NAME>
VHL_5T8E_11.pdb

> <Score>
-2.736702

> <Natom>
75

> <Nflex>
11

> <Hbond>
-4.352286

> <Hphob>
-7.189961

> <VwInt>
-32.103352

> <Dsolv>
19.904266

> <SolEl>
24.33176

> <Eintl>
12.680078

> <RecConf>
ND

> <projPath>
VHL_maps/

> <NAME_>
VHL_5T8E_11.pdb

$$$$
