VHL_4IM0_29.pdb
  MOLSOFT 04032206373D

 59 61  0  0  1  0  0  0  0  0999 V2000
   18.2203   -7.2146   -5.3271 C   0  0  0  0  0  0  0  0  0  0  0  0
   17.0592   -6.2725   -5.1757 C   0  0  0  0  0  0  0  0  0  0  0  0
   15.9772   -6.5270   -5.6780 O   0  0  0  0  0  0  0  0  0  0  0  0
   17.3435   -5.1612   -4.4088 N   0  0  0  0  0  0  0  0  0  0  0  0
   16.3873   -4.0817   -4.1560 C   0  0  2  0  0  0  0  0  0  0  0  0
   16.8704   -2.8188   -4.8747 C   0  0  0  0  0  0  0  0  0  0  0  0
   18.0633   -2.5689   -4.9892 O   0  0  0  0  0  0  0  0  0  0  0  0
   15.8894   -1.9543   -5.3604 N   0  0  0  0  0  0  0  0  0  0  0  0
   16.2286   -0.8875   -6.2846 C   0  0  2  0  0  0  0  0  0  0  0  0
   16.7596    0.3458   -5.5528 C   0  0  0  0  0  0  0  0  0  0  0  0
   16.4076    0.6482   -4.4204 O   0  0  0  0  0  0  0  0  0  0  0  0
   17.6184    1.1091   -6.3227 N   0  0  0  0  0  0  0  0  0  0  0  0
   18.1832    2.3562   -5.8457 C   0  0  0  0  0  0  0  0  0  0  0  0
   17.2911    3.5372   -6.1398 C   0  0  0  0  0  0  0  0  0  0  0  0
   17.5388    4.3677   -7.2285 C   0  0  0  0  0  0  0  0  0  0  0  0
   16.7084    5.4429   -7.5032 C   0  0  0  0  0  0  0  0  0  0  0  0
   15.6087    5.7169   -6.6965 C   0  0  0  0  0  0  0  0  0  0  0  0
   14.7315    6.8376   -6.9991 C   0  0  0  0  0  0  0  0  0  0  0  0
   13.9018    7.0542   -8.0888 C   0  0  0  0  0  0  0  0  0  0  0  0
   13.6823    6.1271   -9.2187 C   0  0  0  0  0  0  0  0  0  0  0  0
   13.2260    8.2584   -8.0823 N   0  0  0  0  0  0  0  0  0  0  0  0
   13.5348    8.9275   -6.9940 C   0  0  0  0  0  0  0  0  0  0  0  0
   14.6237    8.1709   -5.9190 S   0  0  0  0  0  0  0  0  0  0  0  0
   15.3586    4.8894   -5.6089 C   0  0  0  0  0  0  0  0  0  0  0  0
   16.1892    3.8168   -5.3356 C   0  0  0  0  0  0  0  0  0  0  0  0
   14.9204   -0.5926   -6.9991 C   0  0  0  0  0  0  0  0  0  0  0  0
   13.8491   -0.8876   -5.9574 C   0  0  1  0  0  0  0  0  0  0  0  0
   12.6675   -1.3909   -6.5831 O   0  0  0  0  0  0  0  0  0  0  0  0
   14.4680   -1.9510   -5.0566 C   0  0  0  0  0  0  0  0  0  0  0  0
   16.2099   -3.8149   -2.6628 C   0  0  0  0  0  0  0  0  0  0  0  0
   15.2629   -4.8306   -2.0567 C   0  0  0  0  0  0  0  0  0  0  0  0
   19.1760   -6.6931   -5.2202 H   0  0  0  0  0  0  0  0  0  0  0  0
   18.1866   -7.6681   -6.3210 H   0  0  0  0  0  0  0  0  0  0  0  0
   18.1406   -7.9970   -4.5695 H   0  0  0  0  0  0  0  0  0  0  0  0
   18.3014   -5.0202   -4.1092 H   0  0  0  0  0  0  0  0  0  0  0  0
   15.4302   -4.3874   -4.5738 H   0  0  0  0  0  0  0  0  0  0  0  0
   16.9885   -1.2387   -6.9886 H   0  0  0  0  0  0  0  0  0  0  0  0
   17.9328    0.7534   -7.2211 H   0  0  0  0  0  0  0  0  0  0  0  0
   18.3703    2.2836   -4.7685 H   0  0  0  0  0  0  0  0  0  0  0  0
   19.1573    2.4780   -6.3310 H   0  0  0  0  0  0  0  0  0  0  0  0
   18.3927    4.1846   -7.8738 H   0  0  0  0  0  0  0  0  0  0  0  0
   16.9309    6.0765   -8.3577 H   0  0  0  0  0  0  0  0  0  0  0  0
   14.5910    6.0109   -9.8106 H   0  0  0  0  0  0  0  0  0  0  0  0
   12.8974    6.4998   -9.8837 H   0  0  0  0  0  0  0  0  0  0  0  0
   13.3877    5.1389   -8.8558 H   0  0  0  0  0  0  0  0  0  0  0  0
   13.1280    9.9047   -6.7797 H   0  0  0  0  0  0  0  0  0  0  0  0
   14.5011    5.0690   -4.9663 H   0  0  0  0  0  0  0  0  0  0  0  0
   15.9656    3.1910   -4.4768 H   0  0  0  0  0  0  0  0  0  0  0  0
   14.8499    0.4317   -7.3806 H   0  0  0  0  0  0  0  0  0  0  0  0
   14.8023   -1.2634   -7.8578 H   0  0  0  0  0  0  0  0  0  0  0  0
   13.5903    0.0073   -5.3802 H   0  0  0  0  0  0  0  0  0  0  0  0
   12.3263   -0.7021   -7.1819 H   0  0  0  0  0  0  0  0  0  0  0  0
   14.0298   -2.9374   -5.2027 H   0  0  0  0  0  0  0  0  0  0  0  0
   14.3387   -1.6948   -4.0006 H   0  0  0  0  0  0  0  0  0  0  0  0
   17.1738   -3.8516   -2.1445 H   0  0  0  0  0  0  0  0  0  0  0  0
   15.8024   -2.8144   -2.4909 H   0  0  0  0  0  0  0  0  0  0  0  0
   14.2827   -4.7885   -2.5392 H   0  0  0  0  0  0  0  0  0  0  0  0
   15.1248   -4.6329   -0.9917 H   0  0  0  0  0  0  0  0  0  0  0  0
   15.6490   -5.8434   -2.1833 H   0  0  0  0  0  0  0  0  0  0  0  0
  1 32  1  0  0  0  0
  1 33  1  0  0  0  0
  1 34  1  0  0  0  0
  1  2  1  0  0  0  0
  2  3  2  0  0  0  0
  2  4  1  0  0  0  0
  4 35  1  0  0  0  0
  5  4  1  0  0  0  0
  5 36  1  0  0  0  0
  5 30  1  0  0  0  0
  5  6  1  0  0  0  0
  6  7  2  0  0  0  0
  6  8  1  0  0  0  0
  8 29  1  0  0  0  0
  9  8  1  0  0  0  0
  9 26  1  0  0  0  0
  9 37  1  0  0  0  0
  9 10  1  0  0  0  0
 10 11  2  0  0  0  0
 10 12  1  0  0  0  0
 12 38  1  0  0  0  0
 12 13  1  0  0  0  0
 13 39  1  0  0  0  0
 13 40  1  0  0  0  0
 13 14  1  0  0  0  0
 14 25  2  0  0  0  0
 14 15  1  0  0  0  0
 15 16  2  0  0  0  0
 15 41  1  0  0  0  0
 16 17  1  0  0  0  0
 16 42  1  0  0  0  0
 17 24  2  0  0  0  0
 17 18  1  0  0  0  0
 18 19  2  0  0  0  0
 18 23  1  0  0  0  0
 19 20  1  0  0  0  0
 19 21  1  0  0  0  0
 20 43  1  0  0  0  0
 20 44  1  0  0  0  0
 20 45  1  0  0  0  0
 21 22  2  0  0  0  0
 22 46  1  0  0  0  0
 22 23  1  0  0  0  0
 24 25  1  0  0  0  0
 24 47  1  0  0  0  0
 25 48  1  0  0  0  0
 27 26  1  0  0  0  0
 26 49  1  0  0  0  0
 26 50  1  0  0  0  0
 27 29  1  0  0  0  0
 27 51  1  0  0  0  0
 27 28  1  0  0  0  0
 28 52  1  0  0  0  0
 29 53  1  0  0  0  0
 29 54  1  0  0  0  0
 30 55  1  0  0  0  0
 30 56  1  0  0  0  0
 30 31  1  0  0  0  0
 31 57  1  0  0  0  0
 31 58  1  0  0  0  0
 31 59  1  0  0  0  0
M  ZZC   1 c1
M  ZZC   2 c2
M  ZZC   3 o1
M  ZZC   4 n1
M  ZZC   5 c3
M  ZZC   6 c4
M  ZZC   7 o2
M  ZZC   8 n2
M  ZZC   9 c5
M  ZZC  10 c6
M  ZZC  11 o3
M  ZZC  12 n3
M  ZZC  13 c7
M  ZZC  14 c8
M  ZZC  15 c9
M  ZZC  16 c10
M  ZZC  17 c11
M  ZZC  18 c12
M  ZZC  19 c13
M  ZZC  20 c14
M  ZZC  21 n4
M  ZZC  22 c15
M  ZZC  23 s1
M  ZZC  24 c16
M  ZZC  25 c17
M  ZZC  26 c18
M  ZZC  27 c19
M  ZZC  28 o4
M  ZZC  29 c20
M  ZZC  30 c21
M  ZZC  31 c22
M  ZZC  32 h11
M  ZZC  33 h12
M  ZZC  34 h13
M  ZZC  35 h01
M  ZZC  36 h31
M  ZZC  37 h51
M  ZZC  38 h02
M  ZZC  39 h71
M  ZZC  40 h72
M  ZZC  41 h91
M  ZZC  42 h101
M  ZZC  43 h141
M  ZZC  44 h142
M  ZZC  45 h143
M  ZZC  46 h151
M  ZZC  47 h161
M  ZZC  48 h171
M  ZZC  49 h181
M  ZZC  50 h182
M  ZZC  51 h191
M  ZZC  52 h41
M  ZZC  53 h201
M  ZZC  54 h202
M  ZZC  55 h211
M  ZZC  56 h212
M  ZZC  57 h221
M  ZZC  58 h222
M  ZZC  59 h223
M  ZZM   1 1
M  ZZI   1 111
M  ZZM   2 3
M  ZZI   2 121
M  ZZM   3 7
M  ZZI   3 81
M  ZZM   4 10
M  ZZI   4 211
M  ZZM   5 1
M  ZZI   5 113
M  ZZM   6 3
M  ZZI   6 121
M  ZZM   7 7
M  ZZI   7 81
M  ZZM   8 10
M  ZZI   8 192
M  ZZM   9 1
M  ZZI   9 113
M  ZZM  10 3
M  ZZI  10 121
M  ZZM  11 7
M  ZZI  11 81
M  ZZM  12 10
M  ZZI  12 211
M  ZZM  13 1
M  ZZI  13 112
M  ZZM  14 37
M  ZZI  14 124
M  ZZM  15 37
M  ZZI  15 125
M  ZZM  16 37
M  ZZI  16 125
M  ZZM  17 37
M  ZZI  17 124
M  ZZM  18 63
M  ZZI  18 104
M  ZZM  19 64
M  ZZI  19 105
M  ZZM  20 1
M  ZZI  20 111
M  ZZM  21 66
M  ZZI  21 222
M  ZZM  22 63
M  ZZI  22 104
M  ZZM  23 44
M  ZZI  23 248
M  ZZM  24 37
M  ZZI  24 125
M  ZZM  25 37
M  ZZI  25 125
M  ZZM  26 1
M  ZZI  26 112
M  ZZM  27 1
M  ZZI  27 113
M  ZZM  28 6
M  ZZI  28 60
M  ZZM  29 1
M  ZZI  29 112
M  ZZM  30 1
M  ZZI  30 112
M  ZZM  31 1
M  ZZI  31 111
M  ZZM  32 5
M  ZZI  32 1
M  ZZM  33 5
M  ZZI  33 1
M  ZZM  34 5
M  ZZI  34 1
M  ZZM  35 28
M  ZZI  35 11
M  ZZM  36 5
M  ZZI  36 1
M  ZZM  37 5
M  ZZI  37 1
M  ZZM  38 28
M  ZZI  38 11
M  ZZM  39 5
M  ZZI  39 1
M  ZZM  40 5
M  ZZI  40 1
M  ZZM  41 5
M  ZZI  41 1
M  ZZM  42 5
M  ZZI  42 1
M  ZZM  43 5
M  ZZI  43 1
M  ZZM  44 5
M  ZZI  44 1
M  ZZM  45 5
M  ZZI  45 1
M  ZZM  46 5
M  ZZI  46 1
M  ZZM  47 5
M  ZZI  47 1
M  ZZM  48 5
M  ZZI  48 1
M  ZZM  49 5
M  ZZI  49 1
M  ZZM  50 5
M  ZZI  50 1
M  ZZM  51 5
M  ZZI  51 1
M  ZZM  52 21
M  ZZI  52 20
M  ZZM  53 5
M  ZZI  53 1
M  ZZM  54 5
M  ZZI  54 1
M  ZZM  55 5
M  ZZI  55 1
M  ZZM  56 5
M  ZZI  56 1
M  ZZM  57 5
M  ZZI  57 1
M  ZZM  58 5
M  ZZI  58 1
M  ZZM  59 5
M  ZZI  59 1
M  END
> <IX>
1

> <NAME>
VHL_4IM0_29.pdb

> <Score>
-9.274856

> <Natom>
59

> <Nflex>
8

> <Hbond>
-5.626601

> <Hphob>
-6.126552

> <VwInt>
-29.991287

> <Dsolv>
23.34596

> <SolEl>
23.241377

> <Eintl>
2.346236

> <RecConf>
ND

> <projPath>
VHL_maps/

> <NAME_>
VHL_4IM0_29.pdb

$$$$
