VHL_5T8E_18.pdb
  MOLSOFT 04032206443D

 75 78  0  0  1  0  0  0  0  0999 V2000
   13.8866    9.0297   -7.2784 C   0  0  0  0  0  0  0  0  0  0  0  0
   14.7930    8.6699   -8.4511 C   0  0  0  0  0  0  0  0  0  0  0  0
   14.5082    7.2575   -8.9415 C   0  0  0  0  0  0  0  0  0  0  0  0
   14.6358    6.3110   -7.8435 N   0  0  0  0  0  0  0  0  0  0  0  0
   15.5299    5.2408   -7.9523 C   0  0  0  0  0  0  0  0  0  0  0  0
   16.1916    5.0204   -8.9563 O   0  0  0  0  0  0  0  0  0  0  0  0
   15.6463    4.3469   -6.7384 C   0  0  0  0  0  0  0  0  0  0  0  0
   16.5393    3.1131   -6.9500 C   0  0  2  0  0  0  0  0  0  0  0  0
   16.1025    2.1419   -5.9648 N   0  0  0  0  0  0  0  0  0  0  0  0
   15.4738    0.9707   -6.3353 C   0  0  0  0  0  0  0  0  0  0  0  0
   15.5859    0.4568   -7.4407 O   0  0  0  0  0  0  0  0  0  0  0  0
   14.5356    0.4382   -5.2518 C   0  0  2  0  0  0  0  0  0  0  0  0
   14.7466   -0.9601   -4.9231 N   0  0  0  0  0  0  0  0  0  0  0  0
   15.7135   -1.3674   -4.0094 C   0  0  0  0  0  0  0  0  0  0  0  0
   16.6413   -0.6369   -3.6878 O   0  0  0  0  0  0  0  0  0  0  0  0
   15.5144   -2.7478   -3.3701 C   0  0  2  0  0  0  0  0  0  0  0  0
   15.8112   -2.6589   -1.8529 C   0  0  0  0  0  0  0  0  0  0  0  0
   15.6919   -4.0114   -1.1572 C   0  0  0  0  0  0  0  0  0  0  0  0
   14.8464   -1.6836   -1.1663 C   0  0  0  0  0  0  0  0  0  0  0  0
   16.3399   -3.7775   -4.0772 C   0  0  0  0  0  0  0  0  0  0  0  0
   15.8350   -5.0448   -4.0463 O   0  0  0  0  0  0  0  0  0  0  0  0
   16.6889   -5.9108   -4.7316 N   0  0  0  0  0  0  0  0  0  0  0  0
   17.7010   -5.1481   -5.1577 C   0  0  0  0  0  0  0  0  0  0  0  0
   18.8235   -5.7636   -5.9017 C   0  0  0  0  0  0  0  0  0  0  0  0
   17.5221   -3.7932   -4.7805 C   0  0  0  0  0  0  0  0  0  0  0  0
   13.7866   -1.8027   -5.5967 C   0  0  0  0  0  0  0  0  0  0  0  0
   12.9731   -0.8708   -6.4838 C   0  0  1  0  0  0  0  0  0  0  0  0
   11.6101   -1.2812   -6.5630 O   0  0  0  0  0  0  0  0  0  0  0  0
   13.1072    0.4671   -5.7830 C   0  0  0  0  0  0  0  0  0  0  0  0
   18.0499    3.2995   -6.9106 C   0  0  0  0  0  0  0  0  0  0  0  0
   18.6730    4.5477   -6.8289 C   0  0  0  0  0  0  0  0  0  0  0  0
   20.0523    4.6648   -6.8847 C   0  0  0  0  0  0  0  0  0  0  0  0
   20.8390    3.5371   -7.0288 C   0  0  0  0  0  0  0  0  0  0  0  0
   22.5571    3.6871   -7.1278 Cl  0  0  0  0  0  0  0  0  0  0  0  0
   20.2503    2.2905   -7.1048 C   0  0  0  0  0  0  0  0  0  0  0  0
   18.8730    2.1778   -7.0369 C   0  0  0  0  0  0  0  0  0  0  0  0
   13.7662    6.5900   -6.6989 C   0  0  0  0  0  0  0  0  0  0  0  0
   13.9971    7.9966   -6.1649 C   0  0  0  0  0  0  0  0  0  0  0  0
   14.1420   10.0216   -6.8933 H   0  0  0  0  0  0  0  0  0  0  0  0
   12.8483    9.0777   -7.6196 H   0  0  0  0  0  0  0  0  0  0  0  0
   14.6642    9.3855   -9.2668 H   0  0  0  0  0  0  0  0  0  0  0  0
   15.8389    8.7414   -8.1331 H   0  0  0  0  0  0  0  0  0  0  0  0
   13.4884    7.1794   -9.3350 H   0  0  0  0  0  0  0  0  0  0  0  0
   15.1893    6.9991   -9.7527 H   0  0  0  0  0  0  0  0  0  0  0  0
   15.9822    4.9366   -5.8779 H   0  0  0  0  0  0  0  0  0  0  0  0
   14.6319    3.9952   -6.5179 H   0  0  0  0  0  0  0  0  0  0  0  0
   16.3078    2.7058   -7.9401 H   0  0  0  0  0  0  0  0  0  0  0  0
   16.1771    2.3905   -4.9837 H   0  0  0  0  0  0  0  0  0  0  0  0
   14.6304    1.0445   -4.3433 H   0  0  0  0  0  0  0  0  0  0  0  0
   14.4658   -3.0404   -3.4700 H   0  0  0  0  0  0  0  0  0  0  0  0
   16.8338   -2.2964   -1.6934 H   0  0  0  0  0  0  0  0  0  0  0  0
   15.8022   -3.8953   -0.0751 H   0  0  0  0  0  0  0  0  0  0  0  0
   16.4694   -4.7034   -1.4892 H   0  0  0  0  0  0  0  0  0  0  0  0
   14.7196   -4.4753   -1.3478 H   0  0  0  0  0  0  0  0  0  0  0  0
   14.9554   -0.6641   -1.5457 H   0  0  0  0  0  0  0  0  0  0  0  0
   15.0286   -1.6436   -0.0880 H   0  0  0  0  0  0  0  0  0  0  0  0
   13.8034   -1.9822   -1.3147 H   0  0  0  0  0  0  0  0  0  0  0  0
   18.4936   -6.6476   -6.4552 H   0  0  0  0  0  0  0  0  0  0  0  0
   19.6128   -6.0818   -5.2175 H   0  0  0  0  0  0  0  0  0  0  0  0
   19.2563   -5.0621   -6.6193 H   0  0  0  0  0  0  0  0  0  0  0  0
   18.1714   -2.9556   -4.9869 H   0  0  0  0  0  0  0  0  0  0  0  0
   14.3546   -2.5373   -6.1703 H   0  0  0  0  0  0  0  0  0  0  0  0
   13.1615   -2.3267   -4.8690 H   0  0  0  0  0  0  0  0  0  0  0  0
   13.3904   -0.8386   -7.4947 H   0  0  0  0  0  0  0  0  0  0  0  0
   11.1969   -0.8029   -7.3068 H   0  0  0  0  0  0  0  0  0  0  0  0
   12.3885    0.5229   -4.9580 H   0  0  0  0  0  0  0  0  0  0  0  0
   12.8962    1.3056   -6.4555 H   0  0  0  0  0  0  0  0  0  0  0  0
   18.0941    5.4608   -6.7432 H   0  0  0  0  0  0  0  0  0  0  0  0
   20.5084    5.6485   -6.8290 H   0  0  0  0  0  0  0  0  0  0  0  0
   20.8563    1.3991   -7.2339 H   0  0  0  0  0  0  0  0  0  0  0  0
   18.4353    1.1863   -7.1157 H   0  0  0  0  0  0  0  0  0  0  0  0
   12.7336    6.4901   -7.0482 H   0  0  0  0  0  0  0  0  0  0  0  0
   13.9031    5.8698   -5.8914 H   0  0  0  0  0  0  0  0  0  0  0  0
   14.9944    8.0568   -5.7156 H   0  0  0  0  0  0  0  0  0  0  0  0
   13.2742    8.2191   -5.3736 H   0  0  0  0  0  0  0  0  0  0  0  0
  1 39  1  0  0  0  0
  1 40  1  0  0  0  0
  1  2  1  0  0  0  0
  1 38  1  0  0  0  0
  2 41  1  0  0  0  0
  2 42  1  0  0  0  0
  2  3  1  0  0  0  0
  3 43  1  0  0  0  0
  3 44  1  0  0  0  0
  3  4  1  0  0  0  0
  4 37  1  0  0  0  0
  4  5  1  0  0  0  0
  5  6  2  0  0  0  0
  5  7  1  0  0  0  0
  7 45  1  0  0  0  0
  7 46  1  0  0  0  0
  8  7  1  0  0  0  0
  8 47  1  0  0  0  0
  8 30  1  0  0  0  0
  8  9  1  0  0  0  0
  9 48  1  0  0  0  0
  9 10  1  0  0  0  0
 10 11  2  0  0  0  0
 12 10  1  0  0  0  0
 12 49  1  0  0  0  0
 12 29  1  0  0  0  0
 12 13  1  0  0  0  0
 13 26  1  0  0  0  0
 13 14  1  0  0  0  0
 14 15  2  0  0  0  0
 16 14  1  0  0  0  0
 16 50  1  0  0  0  0
 16 17  1  0  0  0  0
 16 20  1  0  0  0  0
 17 51  1  0  0  0  0
 17 19  1  0  0  0  0
 17 18  1  0  0  0  0
 18 52  1  0  0  0  0
 18 53  1  0  0  0  0
 18 54  1  0  0  0  0
 19 55  1  0  0  0  0
 19 56  1  0  0  0  0
 19 57  1  0  0  0  0
 20 25  2  0  0  0  0
 20 21  1  0  0  0  0
 21 22  1  0  0  0  0
 22 23  2  0  0  0  0
 23 25  1  0  0  0  0
 23 24  1  0  0  0  0
 24 58  1  0  0  0  0
 24 59  1  0  0  0  0
 24 60  1  0  0  0  0
 25 61  1  0  0  0  0
 27 26  1  0  0  0  0
 26 62  1  0  0  0  0
 26 63  1  0  0  0  0
 27 29  1  0  0  0  0
 27 64  1  0  0  0  0
 27 28  1  0  0  0  0
 28 65  1  0  0  0  0
 29 66  1  0  0  0  0
 29 67  1  0  0  0  0
 30 31  1  0  0  0  0
 30 36  2  0  0  0  0
 31 68  1  0  0  0  0
 31 32  2  0  0  0  0
 32 69  1  0  0  0  0
 32 33  1  0  0  0  0
 33 34  1  0  0  0  0
 33 35  2  0  0  0  0
 35 70  1  0  0  0  0
 35 36  1  0  0  0  0
 36 71  1  0  0  0  0
 37 72  1  0  0  0  0
 37 73  1  0  0  0  0
 37 38  1  0  0  0  0
 38 74  1  0  0  0  0
 38 75  1  0  0  0  0
M  ZZC   1 c1
M  ZZC   2 c2
M  ZZC   3 c3
M  ZZC   4 n1
M  ZZC   5 c4
M  ZZC   6 o1
M  ZZC   7 c5
M  ZZC   8 c6
M  ZZC   9 n2
M  ZZC  10 c7
M  ZZC  11 o2
M  ZZC  12 c8
M  ZZC  13 n3
M  ZZC  14 c9
M  ZZC  15 o3
M  ZZC  16 c10
M  ZZC  17 c11
M  ZZC  18 c12
M  ZZC  19 c13
M  ZZC  20 c14
M  ZZC  21 o4
M  ZZC  22 n4
M  ZZC  23 c15
M  ZZC  24 c16
M  ZZC  25 c17
M  ZZC  26 c18
M  ZZC  27 c19
M  ZZC  28 o5
M  ZZC  29 c20
M  ZZC  30 c21
M  ZZC  31 c22
M  ZZC  32 c23
M  ZZC  33 c24
M  ZZC  34 &Cl1
M  ZZC  35 c25
M  ZZC  36 c26
M  ZZC  37 c27
M  ZZC  38 c28
M  ZZC  39 h11
M  ZZC  40 h12
M  ZZC  41 h21
M  ZZC  42 h22
M  ZZC  43 h31
M  ZZC  44 h32
M  ZZC  45 h51
M  ZZC  46 h52
M  ZZC  47 h61
M  ZZC  48 h01
M  ZZC  49 h81
M  ZZC  50 h101
M  ZZC  51 h111
M  ZZC  52 h121
M  ZZC  53 h122
M  ZZC  54 h123
M  ZZC  55 h131
M  ZZC  56 h132
M  ZZC  57 h133
M  ZZC  58 h161
M  ZZC  59 h162
M  ZZC  60 h163
M  ZZC  61 h171
M  ZZC  62 h181
M  ZZC  63 h182
M  ZZC  64 h191
M  ZZC  65 h02
M  ZZC  66 h201
M  ZZC  67 h202
M  ZZC  68 h221
M  ZZC  69 h231
M  ZZC  70 h251
M  ZZC  71 h261
M  ZZC  72 h271
M  ZZC  73 h272
M  ZZC  74 h281
M  ZZC  75 h282
M  ZZM   1 1
M  ZZI   1 112
M  ZZM   2 1
M  ZZI   2 112
M  ZZM   3 1
M  ZZI   3 112
M  ZZM   4 10
M  ZZI   4 192
M  ZZM   5 3
M  ZZI   5 121
M  ZZM   6 7
M  ZZI   6 81
M  ZZM   7 1
M  ZZI   7 112
M  ZZM   8 1
M  ZZI   8 113
M  ZZM   9 10
M  ZZI   9 211
M  ZZM  10 3
M  ZZI  10 121
M  ZZM  11 7
M  ZZI  11 81
M  ZZM  12 1
M  ZZI  12 113
M  ZZM  13 10
M  ZZI  13 192
M  ZZM  14 3
M  ZZI  14 121
M  ZZM  15 7
M  ZZI  15 81
M  ZZM  16 1
M  ZZI  16 113
M  ZZM  17 1
M  ZZI  17 113
M  ZZM  18 1
M  ZZI  18 111
M  ZZM  19 1
M  ZZI  19 111
M  ZZM  20 63
M  ZZI  20 104
M  ZZM  21 59
M  ZZI  21 56
M  ZZM  22 65
M  ZZI  22 207
M  ZZM  23 64
M  ZZI  23 105
M  ZZM  24 1
M  ZZI  24 111
M  ZZM  25 64
M  ZZI  25 105
M  ZZM  26 1
M  ZZI  26 112
M  ZZM  27 1
M  ZZI  27 113
M  ZZM  28 6
M  ZZI  28 60
M  ZZM  29 1
M  ZZI  29 112
M  ZZM  30 37
M  ZZI  30 124
M  ZZM  31 37
M  ZZI  31 125
M  ZZM  32 37
M  ZZI  32 125
M  ZZM  33 37
M  ZZI  33 124
M  ZZM  34 12
M  ZZI  34 92
M  ZZM  35 37
M  ZZI  35 125
M  ZZM  36 37
M  ZZI  36 125
M  ZZM  37 1
M  ZZI  37 112
M  ZZM  38 1
M  ZZI  38 112
M  ZZM  39 5
M  ZZI  39 1
M  ZZM  40 5
M  ZZI  40 1
M  ZZM  41 5
M  ZZI  41 1
M  ZZM  42 5
M  ZZI  42 1
M  ZZM  43 5
M  ZZI  43 1
M  ZZM  44 5
M  ZZI  44 1
M  ZZM  45 5
M  ZZI  45 1
M  ZZM  46 5
M  ZZI  46 1
M  ZZM  47 5
M  ZZI  47 1
M  ZZM  48 28
M  ZZI  48 11
M  ZZM  49 5
M  ZZI  49 1
M  ZZM  50 5
M  ZZI  50 1
M  ZZM  51 5
M  ZZI  51 1
M  ZZM  52 5
M  ZZI  52 1
M  ZZM  53 5
M  ZZI  53 1
M  ZZM  54 5
M  ZZI  54 1
M  ZZM  55 5
M  ZZI  55 1
M  ZZM  56 5
M  ZZI  56 1
M  ZZM  57 5
M  ZZI  57 1
M  ZZM  58 5
M  ZZI  58 1
M  ZZM  59 5
M  ZZI  59 1
M  ZZM  60 5
M  ZZI  60 1
M  ZZM  61 5
M  ZZI  61 1
M  ZZM  62 5
M  ZZI  62 1
M  ZZM  63 5
M  ZZI  63 1
M  ZZM  64 5
M  ZZI  64 1
M  ZZM  65 21
M  ZZI  65 20
M  ZZM  66 5
M  ZZI  66 1
M  ZZM  67 5
M  ZZI  67 1
M  ZZM  68 5
M  ZZI  68 1
M  ZZM  69 5
M  ZZI  69 1
M  ZZM  70 5
M  ZZI  70 1
M  ZZM  71 5
M  ZZI  71 1
M  ZZM  72 5
M  ZZI  72 1
M  ZZM  73 5
M  ZZI  73 1
M  ZZM  74 5
M  ZZI  74 1
M  ZZM  75 5
M  ZZI  75 1
M  END
> <IX>
1

> <NAME>
VHL_5T8E_18.pdb

> <Score>
-3.924853

> <Natom>
75

> <Nflex>
11

> <Hbond>
-4.60083

> <Hphob>
-7.44107

> <VwInt>
-30.524956

> <Dsolv>
21.511863

> <SolEl>
19.901865

> <Eintl>
12.260987

> <RecConf>
ND

> <projPath>
VHL_maps/

> <NAME_>
VHL_5T8E_18.pdb

$$$$
