VHL_5UIU_10.pdb
  MOLSOFT 04032206423D

 70 73  0  0  1  0  0  0  0  0999 V2000
   19.4232   -7.2945   -5.9814 C   0  0  0  0  0  0  0  0  0  0  0  0
   19.6077   -6.0043   -6.2840 N   0  0  0  0  0  0  0  0  0  0  0  0
   18.7211   -5.1711   -5.7268 C   0  0  0  0  0  0  0  0  0  0  0  0
   17.7030   -5.6115   -4.8944 C   0  0  0  0  0  0  0  0  0  0  0  0
   16.7656   -4.6953   -4.2149 C   0  0  0  0  0  0  0  0  0  0  0  0
   15.6443   -5.0809   -3.9206 O   0  0  0  0  0  0  0  0  0  0  0  0
   17.2619   -3.4361   -3.9606 N   0  0  0  0  0  0  0  0  0  0  0  0
   16.3949   -2.3141   -3.6205 C   0  0  1  0  0  0  0  0  0  0  0  0
   16.6462   -1.7519   -2.1931 C   0  0  0  0  0  0  0  0  0  0  0  0
   16.4642   -2.8793   -1.1615 C   0  0  0  0  0  0  0  0  0  0  0  0
   18.0550   -1.1614   -2.0213 C   0  0  0  0  0  0  0  0  0  0  0  0
   15.6165   -0.6555   -1.8814 C   0  0  0  0  0  0  0  0  0  0  0  0
   16.6580   -1.3328   -4.7788 C   0  0  0  0  0  0  0  0  0  0  0  0
   17.8017   -1.0196   -5.0916 O   0  0  0  0  0  0  0  0  0  0  0  0
   15.5501   -0.8903   -5.4997 N   0  0  0  0  0  0  0  0  0  0  0  0
   15.7152   -0.1681   -6.7535 C   0  0  2  0  0  0  0  0  0  0  0  0
   16.0425    1.3048   -6.5016 C   0  0  0  0  0  0  0  0  0  0  0  0
   15.2951    2.0584   -5.8925 O   0  0  0  0  0  0  0  0  0  0  0  0
   17.2758    1.6831   -6.9962 N   0  0  0  0  0  0  0  0  0  0  0  0
   17.7976    3.0205   -6.7755 C   0  0  0  0  0  0  0  0  0  0  0  0
   19.2370    3.2071   -7.1954 C   0  0  0  0  0  0  0  0  0  0  0  0
   19.6968    4.4643   -7.5823 C   0  0  0  0  0  0  0  0  0  0  0  0
   21.0264    4.6708   -7.9214 C   0  0  0  0  0  0  0  0  0  0  0  0
   21.9351    3.6211   -7.8809 C   0  0  0  0  0  0  0  0  0  0  0  0
   23.3362    3.8138   -8.2186 C   0  0  0  0  0  0  0  0  0  0  0  0
   24.4136    4.1706   -7.4203 C   0  0  0  0  0  0  0  0  0  0  0  0
   24.3792    4.4978   -5.9771 C   0  0  0  0  0  0  0  0  0  0  0  0
   25.6335    4.2014   -8.0657 N   0  0  0  0  0  0  0  0  0  0  0  0
   25.4702    3.8982   -9.3337 C   0  0  0  0  0  0  0  0  0  0  0  0
   23.8721    3.5661   -9.8315 S   0  0  0  0  0  0  0  0  0  0  0  0
   21.4798    2.3706   -7.4927 C   0  0  0  0  0  0  0  0  0  0  0  0
   20.1593    2.1671   -7.1446 C   0  0  0  0  0  0  0  0  0  0  0  0
   14.3799   -0.3360   -7.4556 C   0  0  0  0  0  0  0  0  0  0  0  0
   13.3687   -0.4905   -6.3317 C   0  0  1  0  0  0  0  0  0  0  0  0
   12.2524   -1.2773   -6.7502 O   0  0  0  0  0  0  0  0  0  0  0  0
   14.1560   -1.2181   -5.2552 C   0  0  0  0  0  0  0  0  0  0  0  0
   17.5770   -6.9735   -4.7253 C   0  0  0  0  0  0  0  0  0  0  0  0
   18.4266   -7.8434   -5.2760 N   0  0  0  0  0  0  0  0  0  0  0  0
   20.1853   -7.9760   -6.3324 H   0  0  0  0  0  0  0  0  0  0  0  0
   18.8690   -4.1248   -5.9692 H   0  0  0  0  0  0  0  0  0  0  0  0
   18.2431   -3.2339   -4.1217 H   0  0  0  0  0  0  0  0  0  0  0  0
   15.3662   -2.6790   -3.6696 H   0  0  0  0  0  0  0  0  0  0  0  0
   16.5454   -2.5021   -0.1370 H   0  0  0  0  0  0  0  0  0  0  0  0
   17.2214   -3.6617   -1.2732 H   0  0  0  0  0  0  0  0  0  0  0  0
   15.4818   -3.3545   -1.2554 H   0  0  0  0  0  0  0  0  0  0  0  0
   18.2292   -0.8448   -0.9881 H   0  0  0  0  0  0  0  0  0  0  0  0
   18.2107   -0.2805   -2.6507 H   0  0  0  0  0  0  0  0  0  0  0  0
   18.8318   -1.8897   -2.2659 H   0  0  0  0  0  0  0  0  0  0  0  0
   15.6959    0.1859   -2.5769 H   0  0  0  0  0  0  0  0  0  0  0  0
   15.7536   -0.2538   -0.8721 H   0  0  0  0  0  0  0  0  0  0  0  0
   14.5927   -1.0399   -1.9387 H   0  0  0  0  0  0  0  0  0  0  0  0
   16.5176   -0.6305   -7.3405 H   0  0  0  0  0  0  0  0  0  0  0  0
   17.8423    1.0004   -7.4925 H   0  0  0  0  0  0  0  0  0  0  0  0
   17.1489    3.7059   -7.3324 H   0  0  0  0  0  0  0  0  0  0  0  0
   17.6949    3.2580   -5.7110 H   0  0  0  0  0  0  0  0  0  0  0  0
   19.0119    5.3067   -7.6186 H   0  0  0  0  0  0  0  0  0  0  0  0
   21.3506    5.6635   -8.2198 H   0  0  0  0  0  0  0  0  0  0  0  0
   25.3803    4.7406   -5.6097 H   0  0  0  0  0  0  0  0  0  0  0  0
   23.9999    3.6557   -5.3910 H   0  0  0  0  0  0  0  0  0  0  0  0
   23.7263    5.3526   -5.7887 H   0  0  0  0  0  0  0  0  0  0  0  0
   26.2952    3.8624  -10.0306 H   0  0  0  0  0  0  0  0  0  0  0  0
   22.1577    1.5262   -7.4665 H   0  0  0  0  0  0  0  0  0  0  0  0
   19.8591    1.1722   -6.8343 H   0  0  0  0  0  0  0  0  0  0  0  0
   14.1285    0.4904   -8.1289 H   0  0  0  0  0  0  0  0  0  0  0  0
   14.4087   -1.2529   -8.0522 H   0  0  0  0  0  0  0  0  0  0  0  0
   13.0125    0.4809   -5.9714 H   0  0  0  0  0  0  0  0  0  0  0  0
   11.7740   -0.7859   -7.4436 H   0  0  0  0  0  0  0  0  0  0  0  0
   14.0230   -2.3034   -5.3200 H   0  0  0  0  0  0  0  0  0  0  0  0
   13.8621   -0.9015   -4.2505 H   0  0  0  0  0  0  0  0  0  0  0  0
   16.8045   -7.4106   -4.1095 H   0  0  0  0  0  0  0  0  0  0  0  0
  1 39  1  0  0  0  0
  1  2  1  0  0  0  0
  1 38  2  0  0  0  0
  2  3  2  0  0  0  0
  3 40  1  0  0  0  0
  3  4  1  0  0  0  0
  4 37  2  0  0  0  0
  4  5  1  0  0  0  0
  5  6  2  0  0  0  0
  5  7  1  0  0  0  0
  7 41  1  0  0  0  0
  8  7  1  0  0  0  0
  8 42  1  0  0  0  0
  8  9  1  0  0  0  0
  8 13  1  0  0  0  0
  9 10  1  0  0  0  0
  9 11  1  0  0  0  0
  9 12  1  0  0  0  0
 10 43  1  0  0  0  0
 10 44  1  0  0  0  0
 10 45  1  0  0  0  0
 11 46  1  0  0  0  0
 11 47  1  0  0  0  0
 11 48  1  0  0  0  0
 12 49  1  0  0  0  0
 12 50  1  0  0  0  0
 12 51  1  0  0  0  0
 13 14  2  0  0  0  0
 13 15  1  0  0  0  0
 16 15  1  0  0  0  0
 15 36  1  0  0  0  0
 16 52  1  0  0  0  0
 16 33  1  0  0  0  0
 16 17  1  0  0  0  0
 17 18  2  0  0  0  0
 17 19  1  0  0  0  0
 19 53  1  0  0  0  0
 19 20  1  0  0  0  0
 20 54  1  0  0  0  0
 20 55  1  0  0  0  0
 20 21  1  0  0  0  0
 21 22  1  0  0  0  0
 21 32  2  0  0  0  0
 22 56  1  0  0  0  0
 22 23  2  0  0  0  0
 23 57  1  0  0  0  0
 23 24  1  0  0  0  0
 24 31  2  0  0  0  0
 24 25  1  0  0  0  0
 25 26  2  0  0  0  0
 25 30  1  0  0  0  0
 26 27  1  0  0  0  0
 26 28  1  0  0  0  0
 27 58  1  0  0  0  0
 27 59  1  0  0  0  0
 27 60  1  0  0  0  0
 28 29  2  0  0  0  0
 29 61  1  0  0  0  0
 29 30  1  0  0  0  0
 31 62  1  0  0  0  0
 31 32  1  0  0  0  0
 32 63  1  0  0  0  0
 33 64  1  0  0  0  0
 33 65  1  0  0  0  0
 34 33  1  0  0  0  0
 34 66  1  0  0  0  0
 34 36  1  0  0  0  0
 34 35  1  0  0  0  0
 35 67  1  0  0  0  0
 36 68  1  0  0  0  0
 36 69  1  0  0  0  0
 37 70  1  0  0  0  0
 37 38  1  0  0  0  0
M  ZZC   1 c1
M  ZZC   2 n1
M  ZZC   3 c2
M  ZZC   4 c3
M  ZZC   5 c4
M  ZZC   6 o1
M  ZZC   7 n2
M  ZZC   8 c5
M  ZZC   9 c6
M  ZZC  10 c7
M  ZZC  11 c8
M  ZZC  12 c9
M  ZZC  13 c10
M  ZZC  14 o2
M  ZZC  15 n3
M  ZZC  16 c11
M  ZZC  17 c12
M  ZZC  18 o3
M  ZZC  19 n4
M  ZZC  20 c13
M  ZZC  21 c14
M  ZZC  22 c15
M  ZZC  23 c16
M  ZZC  24 c17
M  ZZC  25 c18
M  ZZC  26 c19
M  ZZC  27 c20
M  ZZC  28 n5
M  ZZC  29 c21
M  ZZC  30 s1
M  ZZC  31 c22
M  ZZC  32 c23
M  ZZC  33 c24
M  ZZC  34 c25
M  ZZC  35 o4
M  ZZC  36 c26
M  ZZC  37 c27
M  ZZC  38 n6
M  ZZC  39 h11
M  ZZC  40 h21
M  ZZC  41 h01
M  ZZC  42 h51
M  ZZC  43 h71
M  ZZC  44 h72
M  ZZC  45 h73
M  ZZC  46 h81
M  ZZC  47 h82
M  ZZC  48 h83
M  ZZC  49 h91
M  ZZC  50 h92
M  ZZC  51 h93
M  ZZC  52 h111
M  ZZC  53 h41
M  ZZC  54 h131
M  ZZC  55 h132
M  ZZC  56 h151
M  ZZC  57 h161
M  ZZC  58 h201
M  ZZC  59 h202
M  ZZC  60 h203
M  ZZC  61 h211
M  ZZC  62 h221
M  ZZC  63 h231
M  ZZC  64 h241
M  ZZC  65 h242
M  ZZC  66 h251
M  ZZC  67 h02
M  ZZC  68 h261
M  ZZC  69 h262
M  ZZC  70 h271
M  ZZM   1 37
M  ZZI   1 125
M  ZZM   2 38
M  ZZI   2 223
M  ZZM   3 37
M  ZZI   3 125
M  ZZM   4 37
M  ZZI   4 124
M  ZZM   5 3
M  ZZI   5 121
M  ZZM   6 7
M  ZZI   6 81
M  ZZM   7 10
M  ZZI   7 211
M  ZZM   8 1
M  ZZI   8 113
M  ZZM   9 1
M  ZZI   9 110
M  ZZM  10 1
M  ZZI  10 111
M  ZZM  11 1
M  ZZI  11 111
M  ZZM  12 1
M  ZZI  12 111
M  ZZM  13 3
M  ZZI  13 121
M  ZZM  14 7
M  ZZI  14 81
M  ZZM  15 10
M  ZZI  15 192
M  ZZM  16 1
M  ZZI  16 113
M  ZZM  17 3
M  ZZI  17 121
M  ZZM  18 7
M  ZZI  18 81
M  ZZM  19 10
M  ZZI  19 211
M  ZZM  20 1
M  ZZI  20 112
M  ZZM  21 37
M  ZZI  21 124
M  ZZM  22 37
M  ZZI  22 125
M  ZZM  23 37
M  ZZI  23 125
M  ZZM  24 37
M  ZZI  24 124
M  ZZM  25 63
M  ZZI  25 104
M  ZZM  26 64
M  ZZI  26 105
M  ZZM  27 1
M  ZZI  27 111
M  ZZM  28 66
M  ZZI  28 222
M  ZZM  29 63
M  ZZI  29 104
M  ZZM  30 44
M  ZZI  30 248
M  ZZM  31 37
M  ZZI  31 125
M  ZZM  32 37
M  ZZI  32 125
M  ZZM  33 1
M  ZZI  33 112
M  ZZM  34 1
M  ZZI  34 113
M  ZZM  35 6
M  ZZI  35 60
M  ZZM  36 1
M  ZZI  36 112
M  ZZM  37 37
M  ZZI  37 125
M  ZZM  38 38
M  ZZI  38 223
M  ZZM  39 5
M  ZZI  39 6
M  ZZM  40 5
M  ZZI  40 1
M  ZZM  41 28
M  ZZI  41 11
M  ZZM  42 5
M  ZZI  42 1
M  ZZM  43 5
M  ZZI  43 1
M  ZZM  44 5
M  ZZI  44 1
M  ZZM  45 5
M  ZZI  45 1
M  ZZM  46 5
M  ZZI  46 1
M  ZZM  47 5
M  ZZI  47 1
M  ZZM  48 5
M  ZZI  48 1
M  ZZM  49 5
M  ZZI  49 1
M  ZZM  50 5
M  ZZI  50 1
M  ZZM  51 5
M  ZZI  51 1
M  ZZM  52 5
M  ZZI  52 1
M  ZZM  53 28
M  ZZI  53 11
M  ZZM  54 5
M  ZZI  54 1
M  ZZM  55 5
M  ZZI  55 1
M  ZZM  56 5
M  ZZI  56 1
M  ZZM  57 5
M  ZZI  57 1
M  ZZM  58 5
M  ZZI  58 1
M  ZZM  59 5
M  ZZI  59 1
M  ZZM  60 5
M  ZZI  60 1
M  ZZM  61 5
M  ZZI  61 1
M  ZZM  62 5
M  ZZI  62 1
M  ZZM  63 5
M  ZZI  63 1
M  ZZM  64 5
M  ZZI  64 1
M  ZZM  65 5
M  ZZI  65 1
M  ZZM  66 5
M  ZZI  66 1
M  ZZM  67 21
M  ZZI  67 20
M  ZZM  68 5
M  ZZI  68 1
M  ZZM  69 5
M  ZZI  69 1
M  ZZM  70 5
M  ZZI  70 1
M  END
> <IX>
1

> <NAME>
VHL_5UIU_10.pdb

> <Score>
-20.418171

> <Natom>
70

> <Nflex>
8

> <Hbond>
-6.504935

> <Hphob>
-6.234

> <VwInt>
-36.226585

> <Dsolv>
22.603427

> <SolEl>
17.200571

> <Eintl>
5.562889

> <RecConf>
ND

> <projPath>
VHL_maps/

> <NAME_>
VHL_5UIU_10.pdb

$$$$
