VHL_1S9I_1.pdb
  MOLSOFT 04032206373D

 68 70  0  0  1  0  0  0  0  0999 V2000
   18.4020   -6.7427   -5.3948 C   0  0  0  0  0  0  0  0  0  0  0  0
   17.1779   -5.8738   -5.2832 C   0  0  0  0  0  0  0  0  0  0  0  0
   16.0840   -6.2889   -5.6301 O   0  0  0  0  0  0  0  0  0  0  0  0
   17.4240   -4.6291   -4.7338 N   0  0  0  0  0  0  0  0  0  0  0  0
   16.3966   -3.6038   -4.5160 C   0  0  1  0  0  0  0  0  0  0  0  0
   15.8094   -3.6296   -3.0673 C   0  0  0  0  0  0  0  0  0  0  0  0
   15.4056   -5.0533   -2.6574 C   0  0  0  0  0  0  0  0  0  0  0  0
   14.5381   -2.7725   -3.0013 C   0  0  0  0  0  0  0  0  0  0  0  0
   16.8085   -3.1109   -2.0221 C   0  0  0  0  0  0  0  0  0  0  0  0
   17.0294   -2.2461   -4.8984 C   0  0  0  0  0  0  0  0  0  0  0  0
   18.1301   -1.9287   -4.4731 O   0  0  0  0  0  0  0  0  0  0  0  0
   16.3071   -1.3647   -5.7111 N   0  0  0  0  0  0  0  0  0  0  0  0
   16.8257   -0.0268   -6.0142 C   0  0  2  0  0  0  0  0  0  0  0  0
   16.7796    0.9496   -4.8350 C   0  0  0  0  0  0  0  0  0  0  0  0
   17.5781    1.8711   -4.7454 O   0  0  0  0  0  0  0  0  0  0  0  0
   15.6741    0.8162   -4.0137 N   0  0  0  0  0  0  0  0  0  0  0  0
   15.3687    1.7403   -2.9317 C   0  0  1  0  0  0  0  0  0  0  0  0
   14.2801    2.7158   -3.3810 C   0  0  0  0  0  0  0  0  0  0  0  0
   15.0473    0.9770   -1.6597 C   0  0  0  0  0  0  0  0  0  0  0  0
   13.7474    0.7084   -1.2270 C   0  0  0  0  0  0  0  0  0  0  0  0
   13.5157   -0.0121   -0.0665 C   0  0  0  0  0  0  0  0  0  0  0  0
   14.5709   -0.4894    0.6993 C   0  0  0  0  0  0  0  0  0  0  0  0
   14.3202   -1.2428    1.9179 C   0  0  0  0  0  0  0  0  0  0  0  0
   13.7583   -0.8512    3.1258 C   0  0  0  0  0  0  0  0  0  0  0  0
   13.3186    0.5129    3.5047 C   0  0  0  0  0  0  0  0  0  0  0  0
   13.6361   -1.8564    4.0655 N   0  0  0  0  0  0  0  0  0  0  0  0
   14.1200   -2.9768    3.5793 C   0  0  0  0  0  0  0  0  0  0  0  0
   14.7510   -2.9043    1.9947 S   0  0  0  0  0  0  0  0  0  0  0  0
   15.8668   -0.2296    0.2742 C   0  0  0  0  0  0  0  0  0  0  0  0
   16.0975    0.4886   -0.8860 C   0  0  0  0  0  0  0  0  0  0  0  0
   15.9231    0.5126   -7.1221 C   0  0  0  0  0  0  0  0  0  0  0  0
   15.3309   -0.7234   -7.7658 C   0  0  1  0  0  0  0  0  0  0  0  0
   16.1747   -1.1845   -8.8309 O   0  0  0  0  0  0  0  0  0  0  0  0
   15.2552   -1.7401   -6.6341 C   0  0  0  0  0  0  0  0  0  0  0  0
   19.3207   -6.1491   -5.3748 H   0  0  0  0  0  0  0  0  0  0  0  0
   18.3697   -7.2914   -6.3401 H   0  0  0  0  0  0  0  0  0  0  0  0
   18.4088   -7.4542   -4.5656 H   0  0  0  0  0  0  0  0  0  0  0  0
   18.3732   -4.4104   -4.4546 H   0  0  0  0  0  0  0  0  0  0  0  0
   15.5897   -3.8235   -5.2033 H   0  0  0  0  0  0  0  0  0  0  0  0
   14.9375   -5.0681   -1.6687 H   0  0  0  0  0  0  0  0  0  0  0  0
   16.2634   -5.7292   -2.6107 H   0  0  0  0  0  0  0  0  0  0  0  0
   14.6825   -5.4739   -3.3579 H   0  0  0  0  0  0  0  0  0  0  0  0
   14.7484   -1.7228   -3.2295 H   0  0  0  0  0  0  0  0  0  0  0  0
   14.0824   -2.8059   -2.0066 H   0  0  0  0  0  0  0  0  0  0  0  0
   13.7884   -3.1064   -3.7159 H   0  0  0  0  0  0  0  0  0  0  0  0
   16.4165   -3.2211   -1.0064 H   0  0  0  0  0  0  0  0  0  0  0  0
   17.0346   -2.0510   -2.1615 H   0  0  0  0  0  0  0  0  0  0  0  0
   17.7539   -3.6552   -2.0640 H   0  0  0  0  0  0  0  0  0  0  0  0
   17.8643   -0.1271   -6.3472 H   0  0  0  0  0  0  0  0  0  0  0  0
   15.0299    0.0561   -4.1929 H   0  0  0  0  0  0  0  0  0  0  0  0
   16.2613    2.3446   -2.7349 H   0  0  0  0  0  0  0  0  0  0  0  0
   14.6223    3.3111   -4.2334 H   0  0  0  0  0  0  0  0  0  0  0  0
   14.0024    3.4073   -2.5787 H   0  0  0  0  0  0  0  0  0  0  0  0
   13.3759    2.1935   -3.7083 H   0  0  0  0  0  0  0  0  0  0  0  0
   12.8891    1.0559   -1.7915 H   0  0  0  0  0  0  0  0  0  0  0  0
   12.4929   -0.2098    0.2389 H   0  0  0  0  0  0  0  0  0  0  0  0
   14.1829    1.1321    3.7604 H   0  0  0  0  0  0  0  0  0  0  0  0
   12.6570    0.4837    4.3755 H   0  0  0  0  0  0  0  0  0  0  0  0
   12.7772    1.0057    2.6921 H   0  0  0  0  0  0  0  0  0  0  0  0
   14.1253   -3.8967    4.1461 H   0  0  0  0  0  0  0  0  0  0  0  0
   16.7169   -0.5877    0.8478 H   0  0  0  0  0  0  0  0  0  0  0  0
   17.1252    0.6634   -1.1932 H   0  0  0  0  0  0  0  0  0  0  0  0
   15.1174    1.1314   -6.7109 H   0  0  0  0  0  0  0  0  0  0  0  0
   16.4858    1.1310   -7.8296 H   0  0  0  0  0  0  0  0  0  0  0  0
   14.3452   -0.5223   -8.1851 H   0  0  0  0  0  0  0  0  0  0  0  0
   17.0999   -1.0979   -8.5346 H   0  0  0  0  0  0  0  0  0  0  0  0
   15.4061   -2.7602   -6.9973 H   0  0  0  0  0  0  0  0  0  0  0  0
   14.3071   -1.6676   -6.0907 H   0  0  0  0  0  0  0  0  0  0  0  0
  1 35  1  0  0  0  0
  1 36  1  0  0  0  0
  1 37  1  0  0  0  0
  1  2  1  0  0  0  0
  2  3  2  0  0  0  0
  2  4  1  0  0  0  0
  4 38  1  0  0  0  0
  5  4  1  0  0  0  0
  5 39  1  0  0  0  0
  5  6  1  0  0  0  0
  5 10  1  0  0  0  0
  6  7  1  0  0  0  0
  6  8  1  0  0  0  0
  6  9  1  0  0  0  0
  7 40  1  0  0  0  0
  7 41  1  0  0  0  0
  7 42  1  0  0  0  0
  8 43  1  0  0  0  0
  8 44  1  0  0  0  0
  8 45  1  0  0  0  0
  9 46  1  0  0  0  0
  9 47  1  0  0  0  0
  9 48  1  0  0  0  0
 10 11  2  0  0  0  0
 10 12  1  0  0  0  0
 12 34  1  0  0  0  0
 13 12  1  0  0  0  0
 13 31  1  0  0  0  0
 13 49  1  0  0  0  0
 13 14  1  0  0  0  0
 14 15  2  0  0  0  0
 14 16  1  0  0  0  0
 16 50  1  0  0  0  0
 17 16  1  0  0  0  0
 17 51  1  0  0  0  0
 17 18  1  0  0  0  0
 17 19  1  0  0  0  0
 18 52  1  0  0  0  0
 18 53  1  0  0  0  0
 18 54  1  0  0  0  0
 19 20  1  0  0  0  0
 19 30  2  0  0  0  0
 20 55  1  0  0  0  0
 20 21  2  0  0  0  0
 21 56  1  0  0  0  0
 21 22  1  0  0  0  0
 22 29  2  0  0  0  0
 22 23  1  0  0  0  0
 23 24  2  0  0  0  0
 23 28  1  0  0  0  0
 24 25  1  0  0  0  0
 24 26  1  0  0  0  0
 25 57  1  0  0  0  0
 25 58  1  0  0  0  0
 25 59  1  0  0  0  0
 26 27  2  0  0  0  0
 27 60  1  0  0  0  0
 27 28  1  0  0  0  0
 29 61  1  0  0  0  0
 29 30  1  0  0  0  0
 30 62  1  0  0  0  0
 32 31  1  0  0  0  0
 31 63  1  0  0  0  0
 31 64  1  0  0  0  0
 32 34  1  0  0  0  0
 32 65  1  0  0  0  0
 32 33  1  0  0  0  0
 33 66  1  0  0  0  0
 34 67  1  0  0  0  0
 34 68  1  0  0  0  0
M  ZZC   1 c1
M  ZZC   2 c2
M  ZZC   3 o1
M  ZZC   4 n1
M  ZZC   5 c3
M  ZZC   6 c4
M  ZZC   7 c5
M  ZZC   8 c6
M  ZZC   9 c7
M  ZZC  10 c8
M  ZZC  11 o2
M  ZZC  12 n2
M  ZZC  13 c9
M  ZZC  14 c10
M  ZZC  15 o3
M  ZZC  16 n3
M  ZZC  17 c11
M  ZZC  18 c12
M  ZZC  19 c13
M  ZZC  20 c14
M  ZZC  21 c15
M  ZZC  22 c16
M  ZZC  23 c17
M  ZZC  24 c18
M  ZZC  25 c19
M  ZZC  26 n4
M  ZZC  27 c20
M  ZZC  28 s1
M  ZZC  29 c21
M  ZZC  30 c22
M  ZZC  31 c23
M  ZZC  32 c24
M  ZZC  33 o4
M  ZZC  34 c25
M  ZZC  35 h11
M  ZZC  36 h12
M  ZZC  37 h13
M  ZZC  38 h01
M  ZZC  39 h31
M  ZZC  40 h51
M  ZZC  41 h52
M  ZZC  42 h53
M  ZZC  43 h61
M  ZZC  44 h62
M  ZZC  45 h63
M  ZZC  46 h71
M  ZZC  47 h72
M  ZZC  48 h73
M  ZZC  49 h91
M  ZZC  50 h02
M  ZZC  51 h111
M  ZZC  52 h121
M  ZZC  53 h122
M  ZZC  54 h123
M  ZZC  55 h141
M  ZZC  56 h151
M  ZZC  57 h191
M  ZZC  58 h192
M  ZZC  59 h193
M  ZZC  60 h201
M  ZZC  61 h211
M  ZZC  62 h221
M  ZZC  63 h231
M  ZZC  64 h232
M  ZZC  65 h241
M  ZZC  66 h41
M  ZZC  67 h251
M  ZZC  68 h252
M  ZZM   1 1
M  ZZI   1 111
M  ZZM   2 3
M  ZZI   2 121
M  ZZM   3 7
M  ZZI   3 81
M  ZZM   4 10
M  ZZI   4 211
M  ZZM   5 1
M  ZZI   5 113
M  ZZM   6 1
M  ZZI   6 110
M  ZZM   7 1
M  ZZI   7 111
M  ZZM   8 1
M  ZZI   8 111
M  ZZM   9 1
M  ZZI   9 111
M  ZZM  10 3
M  ZZI  10 121
M  ZZM  11 7
M  ZZI  11 81
M  ZZM  12 10
M  ZZI  12 192
M  ZZM  13 1
M  ZZI  13 113
M  ZZM  14 3
M  ZZI  14 121
M  ZZM  15 7
M  ZZI  15 81
M  ZZM  16 10
M  ZZI  16 211
M  ZZM  17 1
M  ZZI  17 113
M  ZZM  18 1
M  ZZI  18 111
M  ZZM  19 37
M  ZZI  19 124
M  ZZM  20 37
M  ZZI  20 125
M  ZZM  21 37
M  ZZI  21 125
M  ZZM  22 37
M  ZZI  22 124
M  ZZM  23 63
M  ZZI  23 104
M  ZZM  24 64
M  ZZI  24 105
M  ZZM  25 1
M  ZZI  25 111
M  ZZM  26 66
M  ZZI  26 222
M  ZZM  27 63
M  ZZI  27 104
M  ZZM  28 44
M  ZZI  28 248
M  ZZM  29 37
M  ZZI  29 125
M  ZZM  30 37
M  ZZI  30 125
M  ZZM  31 1
M  ZZI  31 112
M  ZZM  32 1
M  ZZI  32 113
M  ZZM  33 6
M  ZZI  33 60
M  ZZM  34 1
M  ZZI  34 112
M  ZZM  35 5
M  ZZI  35 1
M  ZZM  36 5
M  ZZI  36 1
M  ZZM  37 5
M  ZZI  37 1
M  ZZM  38 28
M  ZZI  38 11
M  ZZM  39 5
M  ZZI  39 1
M  ZZM  40 5
M  ZZI  40 1
M  ZZM  41 5
M  ZZI  41 1
M  ZZM  42 5
M  ZZI  42 1
M  ZZM  43 5
M  ZZI  43 1
M  ZZM  44 5
M  ZZI  44 1
M  ZZM  45 5
M  ZZI  45 1
M  ZZM  46 5
M  ZZI  46 1
M  ZZM  47 5
M  ZZI  47 1
M  ZZM  48 5
M  ZZI  48 1
M  ZZM  49 5
M  ZZI  49 1
M  ZZM  50 28
M  ZZI  50 11
M  ZZM  51 5
M  ZZI  51 1
M  ZZM  52 5
M  ZZI  52 1
M  ZZM  53 5
M  ZZI  53 1
M  ZZM  54 5
M  ZZI  54 1
M  ZZM  55 5
M  ZZI  55 1
M  ZZM  56 5
M  ZZI  56 1
M  ZZM  57 5
M  ZZI  57 1
M  ZZM  58 5
M  ZZI  58 1
M  ZZM  59 5
M  ZZI  59 1
M  ZZM  60 5
M  ZZI  60 1
M  ZZM  61 5
M  ZZI  61 1
M  ZZM  62 5
M  ZZI  62 1
M  ZZM  63 5
M  ZZI  63 1
M  ZZM  64 5
M  ZZI  64 1
M  ZZM  65 5
M  ZZI  65 1
M  ZZM  66 21
M  ZZI  66 20
M  ZZM  67 5
M  ZZI  67 1
M  ZZM  68 5
M  ZZI  68 1
M  END
> <IX>
1

> <NAME>
VHL_1S9I_1.pdb

> <Score>
-27.060965

> <Natom>
68

> <Nflex>
8

> <Hbond>
-7.491694

> <Hphob>
-6.826043

> <VwInt>
-28.511834

> <Dsolv>
17.293108

> <SolEl>
7.378617

> <Eintl>
3.897639

> <RecConf>
ND

> <projPath>
VHL_maps/

> <NAME_>
VHL_1S9I_1.pdb

$$$$
