VHL_5T8E_50.pdb
  MOLSOFT 04032206453D

 74 77  0  0  1  0  0  0  0  0999 V2000
   11.5416   -0.0178   -6.8367 C   0  0  0  0  0  0  0  0  0  0  0  0
   12.9150    0.2258   -7.1956 N   0  0  0  0  0  0  0  0  0  0  0  0
   13.8481   -0.7859   -7.1505 C   0  0  0  0  0  0  0  0  0  0  0  0
   13.5799   -1.9380   -6.8535 O   0  0  0  0  0  0  0  0  0  0  0  0
   15.2574   -0.3479   -7.4537 C   0  0  0  0  0  0  0  0  0  0  0  0
   16.0028   -0.0163   -6.1581 C   0  0  2  0  0  0  0  0  0  0  0  0
   16.0978   -1.1866   -5.2856 N   0  0  0  0  0  0  0  0  0  0  0  0
   17.3263   -1.7011   -4.9109 C   0  0  0  0  0  0  0  0  0  0  0  0
   18.3752   -1.1768   -5.2526 O   0  0  0  0  0  0  0  0  0  0  0  0
   17.3156   -3.0551   -4.1922 C   0  0  1  0  0  0  0  0  0  0  0  0
   16.1327   -3.3737   -3.3830 N   0  0  0  0  0  0  0  0  0  0  0  0
   15.7235   -2.8207   -2.1682 C   0  0  0  0  0  0  0  0  0  0  0  0
   14.7556   -3.2673   -1.5676 O   0  0  0  0  0  0  0  0  0  0  0  0
   16.5598   -1.6725   -1.5974 C   0  0  2  0  0  0  0  0  0  0  0  0
   17.6722   -2.2755   -0.7002 C   0  0  0  0  0  0  0  0  0  0  0  0
   17.1823   -2.7309    0.6772 C   0  0  0  0  0  0  0  0  0  0  0  0
   18.8584   -1.3222   -0.5442 C   0  0  0  0  0  0  0  0  0  0  0  0
   15.6985   -0.6577   -0.8988 C   0  0  0  0  0  0  0  0  0  0  0  0
   16.3106    0.5255   -0.6061 O   0  0  0  0  0  0  0  0  0  0  0  0
   15.4217    1.3660    0.0664 N   0  0  0  0  0  0  0  0  0  0  0  0
   14.2791    0.6779    0.1495 C   0  0  0  0  0  0  0  0  0  0  0  0
   13.1011    1.2606    0.8225 C   0  0  0  0  0  0  0  0  0  0  0  0
   14.3887   -0.5844   -0.4733 C   0  0  0  0  0  0  0  0  0  0  0  0
   15.5173   -4.6070   -3.8209 C   0  0  0  0  0  0  0  0  0  0  0  0
   16.5519   -5.2907   -4.7046 C   0  0  2  0  0  0  0  0  0  0  0  0
   17.4018   -6.1368   -3.9340 O   0  0  0  0  0  0  0  0  0  0  0  0
   17.3584   -4.1404   -5.2671 C   0  0  0  0  0  0  0  0  0  0  0  0
   15.4558    1.2251   -5.4753 C   0  0  0  0  0  0  0  0  0  0  0  0
   14.5511    1.1743   -4.4176 C   0  0  0  0  0  0  0  0  0  0  0  0
   14.0425    2.3359   -3.8618 C   0  0  0  0  0  0  0  0  0  0  0  0
   14.4189    3.5950   -4.3272 C   0  0  0  0  0  0  0  0  0  0  0  0
   13.8549    4.8109   -3.7335 C   0  0  0  0  0  0  0  0  0  0  0  0
   13.5749    5.1220   -2.4080 C   0  0  0  0  0  0  0  0  0  0  0  0
   13.9229    4.3154   -1.2202 C   0  0  0  0  0  0  0  0  0  0  0  0
   12.8747    6.2973   -2.2067 N   0  0  0  0  0  0  0  0  0  0  0  0
   12.7651    6.9399   -3.3459 C   0  0  0  0  0  0  0  0  0  0  0  0
   13.4280    6.1659   -4.7124 S   0  0  0  0  0  0  0  0  0  0  0  0
   15.3263    3.6434   -5.3817 C   0  0  0  0  0  0  0  0  0  0  0  0
   15.8297    2.4822   -5.9443 C   0  0  0  0  0  0  0  0  0  0  0  0
   11.2304   -1.0121   -7.1647 H   0  0  0  0  0  0  0  0  0  0  0  0
   10.9175    0.7398   -7.3102 H   0  0  0  0  0  0  0  0  0  0  0  0
   11.4479    0.0510   -5.7493 H   0  0  0  0  0  0  0  0  0  0  0  0
   13.1940    1.1778   -7.4087 H   0  0  0  0  0  0  0  0  0  0  0  0
   15.7522   -1.1699   -7.9826 H   0  0  0  0  0  0  0  0  0  0  0  0
   15.2405    0.5076   -8.1384 H   0  0  0  0  0  0  0  0  0  0  0  0
   17.0265    0.2305   -6.4578 H   0  0  0  0  0  0  0  0  0  0  0  0
   15.2517   -1.6757   -5.0087 H   0  0  0  0  0  0  0  0  0  0  0  0
   18.1871   -3.0999   -3.5350 H   0  0  0  0  0  0  0  0  0  0  0  0
   17.0309   -1.1520   -2.4334 H   0  0  0  0  0  0  0  0  0  0  0  0
   18.0588   -3.1698   -1.1981 H   0  0  0  0  0  0  0  0  0  0  0  0
   16.8725   -1.8886    1.3031 H   0  0  0  0  0  0  0  0  0  0  0  0
   17.9793   -3.2568    1.2120 H   0  0  0  0  0  0  0  0  0  0  0  0
   16.3384   -3.4212    0.5962 H   0  0  0  0  0  0  0  0  0  0  0  0
   19.6838   -1.8118   -0.0188 H   0  0  0  0  0  0  0  0  0  0  0  0
   18.5964   -0.4291    0.0290 H   0  0  0  0  0  0  0  0  0  0  0  0
   19.2353   -0.9983   -1.5192 H   0  0  0  0  0  0  0  0  0  0  0  0
   12.2899    1.4656    0.1176 H   0  0  0  0  0  0  0  0  0  0  0  0
   13.3681    2.2031    1.3067 H   0  0  0  0  0  0  0  0  0  0  0  0
   12.7238    0.5756    1.5857 H   0  0  0  0  0  0  0  0  0  0  0  0
   13.6208   -1.3400   -0.5567 H   0  0  0  0  0  0  0  0  0  0  0  0
   15.2134   -5.2237   -2.9677 H   0  0  0  0  0  0  0  0  0  0  0  0
   14.6274   -4.3043   -4.3728 H   0  0  0  0  0  0  0  0  0  0  0  0
   16.1100   -5.9105   -5.4903 H   0  0  0  0  0  0  0  0  0  0  0  0
   16.8845   -6.9257   -3.6904 H   0  0  0  0  0  0  0  0  0  0  0  0
   16.8814   -3.7828   -6.1849 H   0  0  0  0  0  0  0  0  0  0  0  0
   18.3868   -4.4205   -5.5186 H   0  0  0  0  0  0  0  0  0  0  0  0
   14.2112    0.2218   -4.0224 H   0  0  0  0  0  0  0  0  0  0  0  0
   13.3190    2.2395   -3.0584 H   0  0  0  0  0  0  0  0  0  0  0  0
   13.1775    3.5364   -1.0412 H   0  0  0  0  0  0  0  0  0  0  0  0
   13.9620    4.9344   -0.3199 H   0  0  0  0  0  0  0  0  0  0  0  0
   14.8977    3.8442   -1.3641 H   0  0  0  0  0  0  0  0  0  0  0  0
   12.2763    7.8995   -3.4249 H   0  0  0  0  0  0  0  0  0  0  0  0
   15.6653    4.5954   -5.7786 H   0  0  0  0  0  0  0  0  0  0  0  0
   16.5313    2.5694   -6.7694 H   0  0  0  0  0  0  0  0  0  0  0  0
  1 40  1  0  0  0  0
  1 41  1  0  0  0  0
  1 42  1  0  0  0  0
  1  2  1  0  0  0  0
  2 43  1  0  0  0  0
  2  3  1  0  0  0  0
  3  4  2  0  0  0  0
  3  5  1  0  0  0  0
  5 44  1  0  0  0  0
  5 45  1  0  0  0  0
  6  5  1  0  0  0  0
  6 46  1  0  0  0  0
  6 28  1  0  0  0  0
  6  7  1  0  0  0  0
  7 47  1  0  0  0  0
  7  8  1  0  0  0  0
  8  9  2  0  0  0  0
 10  8  1  0  0  0  0
 10 48  1  0  0  0  0
 10 27  1  0  0  0  0
 10 11  1  0  0  0  0
 11 24  1  0  0  0  0
 11 12  1  0  0  0  0
 12 13  2  0  0  0  0
 14 12  1  0  0  0  0
 14 49  1  0  0  0  0
 14 15  1  0  0  0  0
 14 18  1  0  0  0  0
 15 50  1  0  0  0  0
 15 17  1  0  0  0  0
 15 16  1  0  0  0  0
 16 51  1  0  0  0  0
 16 52  1  0  0  0  0
 16 53  1  0  0  0  0
 17 54  1  0  0  0  0
 17 55  1  0  0  0  0
 17 56  1  0  0  0  0
 18 23  2  0  0  0  0
 18 19  1  0  0  0  0
 19 20  1  0  0  0  0
 20 21  2  0  0  0  0
 21 23  1  0  0  0  0
 21 22  1  0  0  0  0
 22 57  1  0  0  0  0
 22 58  1  0  0  0  0
 22 59  1  0  0  0  0
 23 60  1  0  0  0  0
 25 24  1  0  0  0  0
 24 61  1  0  0  0  0
 24 62  1  0  0  0  0
 25 27  1  0  0  0  0
 25 63  1  0  0  0  0
 25 26  1  0  0  0  0
 26 64  1  0  0  0  0
 27 65  1  0  0  0  0
 27 66  1  0  0  0  0
 28 29  1  0  0  0  0
 28 39  2  0  0  0  0
 29 67  1  0  0  0  0
 29 30  2  0  0  0  0
 30 68  1  0  0  0  0
 30 31  1  0  0  0  0
 31 38  2  0  0  0  0
 31 32  1  0  0  0  0
 32 33  2  0  0  0  0
 32 37  1  0  0  0  0
 33 34  1  0  0  0  0
 33 35  1  0  0  0  0
 34 69  1  0  0  0  0
 34 70  1  0  0  0  0
 34 71  1  0  0  0  0
 35 36  2  0  0  0  0
 36 72  1  0  0  0  0
 36 37  1  0  0  0  0
 38 73  1  0  0  0  0
 38 39  1  0  0  0  0
 39 74  1  0  0  0  0
M  ZZC   1 c1
M  ZZC   2 n1
M  ZZC   3 c2
M  ZZC   4 o1
M  ZZC   5 c3
M  ZZC   6 c4
M  ZZC   7 n2
M  ZZC   8 c5
M  ZZC   9 o2
M  ZZC  10 c6
M  ZZC  11 n3
M  ZZC  12 c7
M  ZZC  13 o3
M  ZZC  14 c8
M  ZZC  15 c9
M  ZZC  16 c10
M  ZZC  17 c11
M  ZZC  18 c12
M  ZZC  19 o4
M  ZZC  20 n4
M  ZZC  21 c13
M  ZZC  22 c14
M  ZZC  23 c15
M  ZZC  24 c16
M  ZZC  25 c17
M  ZZC  26 o5
M  ZZC  27 c18
M  ZZC  28 c19
M  ZZC  29 c20
M  ZZC  30 c21
M  ZZC  31 c22
M  ZZC  32 c23
M  ZZC  33 c24
M  ZZC  34 c25
M  ZZC  35 n5
M  ZZC  36 c26
M  ZZC  37 s1
M  ZZC  38 c27
M  ZZC  39 c28
M  ZZC  40 h11
M  ZZC  41 h12
M  ZZC  42 h13
M  ZZC  43 h01
M  ZZC  44 h31
M  ZZC  45 h32
M  ZZC  46 h41
M  ZZC  47 h21
M  ZZC  48 h61
M  ZZC  49 h81
M  ZZC  50 h91
M  ZZC  51 h101
M  ZZC  52 h102
M  ZZC  53 h103
M  ZZC  54 h111
M  ZZC  55 h112
M  ZZC  56 h113
M  ZZC  57 h141
M  ZZC  58 h142
M  ZZC  59 h143
M  ZZC  60 h151
M  ZZC  61 h161
M  ZZC  62 h162
M  ZZC  63 h171
M  ZZC  64 h51
M  ZZC  65 h181
M  ZZC  66 h182
M  ZZC  67 h201
M  ZZC  68 h211
M  ZZC  69 h251
M  ZZC  70 h252
M  ZZC  71 h253
M  ZZC  72 h261
M  ZZC  73 h271
M  ZZC  74 h281
M  ZZM   1 1
M  ZZI   1 111
M  ZZM   2 10
M  ZZI   2 211
M  ZZM   3 3
M  ZZI   3 121
M  ZZM   4 7
M  ZZI   4 81
M  ZZM   5 1
M  ZZI   5 112
M  ZZM   6 1
M  ZZI   6 113
M  ZZM   7 10
M  ZZI   7 211
M  ZZM   8 3
M  ZZI   8 121
M  ZZM   9 7
M  ZZI   9 81
M  ZZM  10 1
M  ZZI  10 113
M  ZZM  11 10
M  ZZI  11 192
M  ZZM  12 3
M  ZZI  12 121
M  ZZM  13 7
M  ZZI  13 81
M  ZZM  14 1
M  ZZI  14 113
M  ZZM  15 1
M  ZZI  15 113
M  ZZM  16 1
M  ZZI  16 111
M  ZZM  17 1
M  ZZI  17 111
M  ZZM  18 63
M  ZZI  18 104
M  ZZM  19 59
M  ZZI  19 56
M  ZZM  20 65
M  ZZI  20 207
M  ZZM  21 64
M  ZZI  21 105
M  ZZM  22 1
M  ZZI  22 111
M  ZZM  23 64
M  ZZI  23 105
M  ZZM  24 1
M  ZZI  24 112
M  ZZM  25 1
M  ZZI  25 113
M  ZZM  26 6
M  ZZI  26 60
M  ZZM  27 1
M  ZZI  27 112
M  ZZM  28 37
M  ZZI  28 124
M  ZZM  29 37
M  ZZI  29 125
M  ZZM  30 37
M  ZZI  30 125
M  ZZM  31 37
M  ZZI  31 124
M  ZZM  32 63
M  ZZI  32 104
M  ZZM  33 64
M  ZZI  33 105
M  ZZM  34 1
M  ZZI  34 111
M  ZZM  35 66
M  ZZI  35 222
M  ZZM  36 63
M  ZZI  36 104
M  ZZM  37 44
M  ZZI  37 248
M  ZZM  38 37
M  ZZI  38 125
M  ZZM  39 37
M  ZZI  39 125
M  ZZM  40 5
M  ZZI  40 1
M  ZZM  41 5
M  ZZI  41 1
M  ZZM  42 5
M  ZZI  42 1
M  ZZM  43 28
M  ZZI  43 11
M  ZZM  44 5
M  ZZI  44 1
M  ZZM  45 5
M  ZZI  45 1
M  ZZM  46 5
M  ZZI  46 1
M  ZZM  47 28
M  ZZI  47 11
M  ZZM  48 5
M  ZZI  48 1
M  ZZM  49 5
M  ZZI  49 1
M  ZZM  50 5
M  ZZI  50 1
M  ZZM  51 5
M  ZZI  51 1
M  ZZM  52 5
M  ZZI  52 1
M  ZZM  53 5
M  ZZI  53 1
M  ZZM  54 5
M  ZZI  54 1
M  ZZM  55 5
M  ZZI  55 1
M  ZZM  56 5
M  ZZI  56 1
M  ZZM  57 5
M  ZZI  57 1
M  ZZM  58 5
M  ZZI  58 1
M  ZZM  59 5
M  ZZI  59 1
M  ZZM  60 5
M  ZZI  60 1
M  ZZM  61 5
M  ZZI  61 1
M  ZZM  62 5
M  ZZI  62 1
M  ZZM  63 5
M  ZZI  63 1
M  ZZM  64 21
M  ZZI  64 20
M  ZZM  65 5
M  ZZI  65 1
M  ZZM  66 5
M  ZZI  66 1
M  ZZM  67 5
M  ZZI  67 1
M  ZZM  68 5
M  ZZI  68 1
M  ZZM  69 5
M  ZZI  69 1
M  ZZM  70 5
M  ZZI  70 1
M  ZZM  71 5
M  ZZI  71 1
M  ZZM  72 5
M  ZZI  72 1
M  ZZM  73 5
M  ZZI  73 1
M  ZZM  74 5
M  ZZI  74 1
M  END
> <IX>
1

> <NAME>
VHL_5T8E_50.pdb

> <Score>
-13.991867

> <Natom>
74

> <Nflex>
10

> <Hbond>
-6.042385

> <Hphob>
-8.071854

> <VwInt>
-26.215895

> <Dsolv>
19.821198

> <SolEl>
13.059034

> <Eintl>
5.724238

> <RecConf>
ND

> <projPath>
VHL_maps/

> <NAME_>
VHL_5T8E_50.pdb

$$$$
