VHL_3MXF_10.pdb
  MOLSOFT 04032206383D

 66 68  0  0  1  0  0  0  0  0999 V2000
   15.0779   -4.9364   -2.2132 C   0  0  0  0  0  0  0  0  0  0  0  0
   16.4682   -4.0082   -1.5033 S   0  0  0  0  0  0  0  0  0  0  0  0
   16.5522   -2.5341   -2.6180 C   0  0  0  0  0  0  0  0  0  0  0  0
   16.5257   -2.9432   -4.1275 C   0  0  2  0  0  0  0  0  0  0  0  0
   17.5483   -3.9332   -4.4984 N   0  0  0  0  0  0  0  0  0  0  0  0
   17.2780   -5.1678   -5.0629 C   0  0  0  0  0  0  0  0  0  0  0  0
   16.1630   -5.6357   -5.2255 O   0  0  0  0  0  0  0  0  0  0  0  0
   18.5023   -5.9474   -5.4603 C   0  0  0  0  0  0  0  0  0  0  0  0
   16.7900   -1.7611   -5.0766 C   0  0  0  0  0  0  0  0  0  0  0  0
   17.9344   -1.3804   -5.2957 O   0  0  0  0  0  0  0  0  0  0  0  0
   15.6873   -1.1687   -5.6916 N   0  0  0  0  0  0  0  0  0  0  0  0
   15.8654   -0.2896   -6.8366 C   0  0  2  0  0  0  0  0  0  0  0  0
   16.2073    1.1392   -6.4095 C   0  0  0  0  0  0  0  0  0  0  0  0
   15.5161    1.7888   -5.6366 O   0  0  0  0  0  0  0  0  0  0  0  0
   17.3721    1.6127   -6.9802 N   0  0  0  0  0  0  0  0  0  0  0  0
   17.8838    2.9382   -6.6788 C   0  0  0  0  0  0  0  0  0  0  0  0
   19.3112    3.1594   -7.1206 C   0  0  0  0  0  0  0  0  0  0  0  0
   19.7604    4.4374   -7.4471 C   0  0  0  0  0  0  0  0  0  0  0  0
   21.0821    4.6646   -7.8047 C   0  0  0  0  0  0  0  0  0  0  0  0
   21.9918    3.6155   -7.8430 C   0  0  0  0  0  0  0  0  0  0  0  0
   23.3852    3.8235   -8.2018 C   0  0  0  0  0  0  0  0  0  0  0  0
   24.4720    4.1853   -7.4186 C   0  0  0  0  0  0  0  0  0  0  0  0
   24.4579    4.5019   -5.9727 C   0  0  0  0  0  0  0  0  0  0  0  0
   25.6811    4.2303   -8.0833 N   0  0  0  0  0  0  0  0  0  0  0  0
   25.5008    3.9290   -9.3494 C   0  0  0  0  0  0  0  0  0  0  0  0
   23.8983    3.5824   -9.8229 S   0  0  0  0  0  0  0  0  0  0  0  0
   21.5466    2.3454   -7.5127 C   0  0  0  0  0  0  0  0  0  0  0  0
   20.2346    2.1205   -7.1495 C   0  0  0  0  0  0  0  0  0  0  0  0
   14.5288   -0.3569   -7.5520 C   0  0  0  0  0  0  0  0  0  0  0  0
   13.5153   -0.5755   -6.4406 C   0  0  1  0  0  0  0  0  0  0  0  0
   12.3696   -1.2900   -6.9014 O   0  0  0  0  0  0  0  0  0  0  0  0
   14.2784   -1.4195   -5.4365 C   0  0  0  0  0  0  0  0  0  0  0  0
   15.3736   -1.6312   -2.2219 C   0  0  0  0  0  0  0  0  0  0  0  0
   17.8447   -1.7988   -2.2294 C   0  0  0  0  0  0  0  0  0  0  0  0
   14.3549   -4.3026   -2.7283 H   0  0  0  0  0  0  0  0  0  0  0  0
   14.5569   -5.4466   -1.4084 H   0  0  0  0  0  0  0  0  0  0  0  0
   15.4461   -5.7051   -2.8912 H   0  0  0  0  0  0  0  0  0  0  0  0
   15.5586   -3.3804   -4.3778 H   0  0  0  0  0  0  0  0  0  0  0  0
   18.5150   -3.6309   -4.4617 H   0  0  0  0  0  0  0  0  0  0  0  0
   18.2990   -6.5004   -6.3803 H   0  0  0  0  0  0  0  0  0  0  0  0
   18.7390   -6.6615   -4.6694 H   0  0  0  0  0  0  0  0  0  0  0  0
   19.3587   -5.2905   -5.6387 H   0  0  0  0  0  0  0  0  0  0  0  0
   16.6626   -0.6834   -7.4780 H   0  0  0  0  0  0  0  0  0  0  0  0
   17.9008    1.0054   -7.6001 H   0  0  0  0  0  0  0  0  0  0  0  0
   17.2173    3.6504   -7.1780 H   0  0  0  0  0  0  0  0  0  0  0  0
   17.8043    3.1069   -5.5994 H   0  0  0  0  0  0  0  0  0  0  0  0
   19.0735    5.2785   -7.4212 H   0  0  0  0  0  0  0  0  0  0  0  0
   21.3989    5.6726   -8.0558 H   0  0  0  0  0  0  0  0  0  0  0  0
   23.8556    5.3936   -5.7773 H   0  0  0  0  0  0  0  0  0  0  0  0
   25.4694    4.6891   -5.6003 H   0  0  0  0  0  0  0  0  0  0  0  0
   24.0418    3.6723   -5.3967 H   0  0  0  0  0  0  0  0  0  0  0  0
   26.3153    3.9024  -10.0591 H   0  0  0  0  0  0  0  0  0  0  0  0
   22.2266    1.5031   -7.5433 H   0  0  0  0  0  0  0  0  0  0  0  0
   19.9403    1.1094   -6.8905 H   0  0  0  0  0  0  0  0  0  0  0  0
   14.3026    0.5304   -8.1531 H   0  0  0  0  0  0  0  0  0  0  0  0
   14.5336   -1.2220   -8.2213 H   0  0  0  0  0  0  0  0  0  0  0  0
   13.1914    0.3719   -5.9955 H   0  0  0  0  0  0  0  0  0  0  0  0
   11.9104   -0.7421   -7.5642 H   0  0  0  0  0  0  0  0  0  0  0  0
   14.0618   -2.4851   -5.5331 H   0  0  0  0  0  0  0  0  0  0  0  0
   14.0199   -1.1207   -4.4213 H   0  0  0  0  0  0  0  0  0  0  0  0
   14.4041   -2.0794   -2.4571 H   0  0  0  0  0  0  0  0  0  0  0  0
   15.4270   -0.6641   -2.7304 H   0  0  0  0  0  0  0  0  0  0  0  0
   15.3718   -1.4120   -1.1486 H   0  0  0  0  0  0  0  0  0  0  0  0
   17.9283   -0.8326   -2.7357 H   0  0  0  0  0  0  0  0  0  0  0  0
   18.7360   -2.3739   -2.4821 H   0  0  0  0  0  0  0  0  0  0  0  0
   17.8890   -1.5857   -1.1560 H   0  0  0  0  0  0  0  0  0  0  0  0
  1 35  1  0  0  0  0
  1 36  1  0  0  0  0
  1 37  1  0  0  0  0
  1  2  1  0  0  0  0
  2  3  1  0  0  0  0
  3 33  1  0  0  0  0
  3 34  1  0  0  0  0
  4  3  1  0  0  0  0
  4 38  1  0  0  0  0
  4  5  1  0  0  0  0
  4  9  1  0  0  0  0
  5 39  1  0  0  0  0
  5  6  1  0  0  0  0
  6  7  2  0  0  0  0
  6  8  1  0  0  0  0
  8 40  1  0  0  0  0
  8 41  1  0  0  0  0
  8 42  1  0  0  0  0
  9 10  2  0  0  0  0
  9 11  1  0  0  0  0
 11 32  1  0  0  0  0
 12 11  1  0  0  0  0
 12 29  1  0  0  0  0
 12 43  1  0  0  0  0
 12 13  1  0  0  0  0
 13 14  2  0  0  0  0
 13 15  1  0  0  0  0
 15 44  1  0  0  0  0
 15 16  1  0  0  0  0
 16 45  1  0  0  0  0
 16 46  1  0  0  0  0
 16 17  1  0  0  0  0
 17 18  1  0  0  0  0
 17 28  2  0  0  0  0
 18 47  1  0  0  0  0
 18 19  2  0  0  0  0
 19 48  1  0  0  0  0
 19 20  1  0  0  0  0
 20 27  2  0  0  0  0
 20 21  1  0  0  0  0
 21 22  2  0  0  0  0
 21 26  1  0  0  0  0
 22 23  1  0  0  0  0
 22 24  1  0  0  0  0
 23 49  1  0  0  0  0
 23 50  1  0  0  0  0
 23 51  1  0  0  0  0
 24 25  2  0  0  0  0
 25 52  1  0  0  0  0
 25 26  1  0  0  0  0
 27 53  1  0  0  0  0
 27 28  1  0  0  0  0
 28 54  1  0  0  0  0
 30 29  1  0  0  0  0
 29 55  1  0  0  0  0
 29 56  1  0  0  0  0
 30 32  1  0  0  0  0
 30 57  1  0  0  0  0
 30 31  1  0  0  0  0
 31 58  1  0  0  0  0
 32 59  1  0  0  0  0
 32 60  1  0  0  0  0
 33 61  1  0  0  0  0
 33 62  1  0  0  0  0
 33 63  1  0  0  0  0
 34 64  1  0  0  0  0
 34 65  1  0  0  0  0
 34 66  1  0  0  0  0
M  ZZC   1 c1
M  ZZC   2 s1
M  ZZC   3 c2
M  ZZC   4 c3
M  ZZC   5 n1
M  ZZC   6 c4
M  ZZC   7 o1
M  ZZC   8 c5
M  ZZC   9 c6
M  ZZC  10 o2
M  ZZC  11 n2
M  ZZC  12 c7
M  ZZC  13 c8
M  ZZC  14 o3
M  ZZC  15 n3
M  ZZC  16 c9
M  ZZC  17 c10
M  ZZC  18 c11
M  ZZC  19 c12
M  ZZC  20 c13
M  ZZC  21 c14
M  ZZC  22 c15
M  ZZC  23 c16
M  ZZC  24 n4
M  ZZC  25 c17
M  ZZC  26 s2
M  ZZC  27 c18
M  ZZC  28 c19
M  ZZC  29 c20
M  ZZC  30 c21
M  ZZC  31 o4
M  ZZC  32 c22
M  ZZC  33 c23
M  ZZC  34 c24
M  ZZC  35 h11
M  ZZC  36 h12
M  ZZC  37 h13
M  ZZC  38 h31
M  ZZC  39 h01
M  ZZC  40 h51
M  ZZC  41 h52
M  ZZC  42 h53
M  ZZC  43 h71
M  ZZC  44 h02
M  ZZC  45 h91
M  ZZC  46 h92
M  ZZC  47 h111
M  ZZC  48 h121
M  ZZC  49 h161
M  ZZC  50 h162
M  ZZC  51 h163
M  ZZC  52 h171
M  ZZC  53 h181
M  ZZC  54 h191
M  ZZC  55 h201
M  ZZC  56 h202
M  ZZC  57 h211
M  ZZC  58 h41
M  ZZC  59 h221
M  ZZC  60 h222
M  ZZC  61 h231
M  ZZC  62 h232
M  ZZC  63 h233
M  ZZC  64 h241
M  ZZC  65 h242
M  ZZC  66 h243
M  ZZM   1 1
M  ZZI   1 111
M  ZZM   2 15
M  ZZI   2 253
M  ZZM   3 1
M  ZZI   3 110
M  ZZM   4 1
M  ZZI   4 113
M  ZZM   5 10
M  ZZI   5 211
M  ZZM   6 3
M  ZZI   6 121
M  ZZM   7 7
M  ZZI   7 81
M  ZZM   8 1
M  ZZI   8 111
M  ZZM   9 3
M  ZZI   9 121
M  ZZM  10 7
M  ZZI  10 81
M  ZZM  11 10
M  ZZI  11 192
M  ZZM  12 1
M  ZZI  12 113
M  ZZM  13 3
M  ZZI  13 121
M  ZZM  14 7
M  ZZI  14 81
M  ZZM  15 10
M  ZZI  15 211
M  ZZM  16 1
M  ZZI  16 112
M  ZZM  17 37
M  ZZI  17 124
M  ZZM  18 37
M  ZZI  18 125
M  ZZM  19 37
M  ZZI  19 125
M  ZZM  20 37
M  ZZI  20 124
M  ZZM  21 63
M  ZZI  21 104
M  ZZM  22 64
M  ZZI  22 105
M  ZZM  23 1
M  ZZI  23 111
M  ZZM  24 66
M  ZZI  24 222
M  ZZM  25 63
M  ZZI  25 104
M  ZZM  26 44
M  ZZI  26 248
M  ZZM  27 37
M  ZZI  27 125
M  ZZM  28 37
M  ZZI  28 125
M  ZZM  29 1
M  ZZI  29 112
M  ZZM  30 1
M  ZZI  30 113
M  ZZM  31 6
M  ZZI  31 60
M  ZZM  32 1
M  ZZI  32 112
M  ZZM  33 1
M  ZZI  33 111
M  ZZM  34 1
M  ZZI  34 111
M  ZZM  35 5
M  ZZI  35 1
M  ZZM  36 5
M  ZZI  36 1
M  ZZM  37 5
M  ZZI  37 1
M  ZZM  38 5
M  ZZI  38 1
M  ZZM  39 28
M  ZZI  39 11
M  ZZM  40 5
M  ZZI  40 1
M  ZZM  41 5
M  ZZI  41 1
M  ZZM  42 5
M  ZZI  42 1
M  ZZM  43 5
M  ZZI  43 1
M  ZZM  44 28
M  ZZI  44 11
M  ZZM  45 5
M  ZZI  45 1
M  ZZM  46 5
M  ZZI  46 1
M  ZZM  47 5
M  ZZI  47 1
M  ZZM  48 5
M  ZZI  48 1
M  ZZM  49 5
M  ZZI  49 1
M  ZZM  50 5
M  ZZI  50 1
M  ZZM  51 5
M  ZZI  51 1
M  ZZM  52 5
M  ZZI  52 1
M  ZZM  53 5
M  ZZI  53 1
M  ZZM  54 5
M  ZZI  54 1
M  ZZM  55 5
M  ZZI  55 1
M  ZZM  56 5
M  ZZI  56 1
M  ZZM  57 5
M  ZZI  57 1
M  ZZM  58 21
M  ZZI  58 20
M  ZZM  59 5
M  ZZI  59 1
M  ZZM  60 5
M  ZZI  60 1
M  ZZM  61 5
M  ZZI  61 1
M  ZZM  62 5
M  ZZI  62 1
M  ZZM  63 5
M  ZZI  63 1
M  ZZM  64 5
M  ZZI  64 1
M  ZZM  65 5
M  ZZI  65 1
M  ZZM  66 5
M  ZZI  66 1
M  END
> <IX>
1

> <NAME>
VHL_3MXF_10.pdb

> <Score>
-13.755026

> <Natom>
66

> <Nflex>
9

> <Hbond>
-5.263157

> <Hphob>
-6.348042

> <VwInt>
-28.435168

> <Dsolv>
17.874149

> <SolEl>
14.691971

> <Eintl>
6.244675

> <RecConf>
ND

> <projPath>
VHL_maps/

> <NAME_>
VHL_3MXF_10.pdb

$$$$
