VHL_4IM0_26.pdb
  MOLSOFT 04032206373D

 65 67  0  0  1  0  0  0  0  0999 V2000
   15.8411   -6.3348   -5.5665 O   0  0  0  0  0  0  0  0  0  0  0  0
   16.9181   -6.0664   -5.0623 C   0  0  0  0  0  0  0  0  0  0  0  0
   17.2039   -4.9017   -4.3780 N   0  0  0  0  0  0  0  0  0  0  0  0
   16.2654   -3.7830   -4.2075 C   0  0  1  0  0  0  0  0  0  0  0  0
   15.8547   -3.5649   -2.7195 C   0  0  0  0  0  0  0  0  0  0  0  0
   17.0259   -3.0790   -1.8533 C   0  0  0  0  0  0  0  0  0  0  0  0
   14.7203   -2.5385   -2.5841 C   0  0  0  0  0  0  0  0  0  0  0  0
   15.3299   -4.8894   -2.1507 C   0  0  0  0  0  0  0  0  0  0  0  0
   16.9628   -2.5806   -4.8669 C   0  0  0  0  0  0  0  0  0  0  0  0
   18.1660   -2.3992   -4.7380 O   0  0  0  0  0  0  0  0  0  0  0  0
   16.1896   -1.6784   -5.5941 N   0  0  0  0  0  0  0  0  0  0  0  0
   16.8237   -0.5873   -6.3215 C   0  0  2  0  0  0  0  0  0  0  0  0
   17.3594    0.5035   -5.3967 C   0  0  0  0  0  0  0  0  0  0  0  0
   16.9131    0.7042   -4.2749 O   0  0  0  0  0  0  0  0  0  0  0  0
   18.3197    1.2942   -6.0045 N   0  0  0  0  0  0  0  0  0  0  0  0
   18.6851    2.5946   -5.4782 C   0  0  0  0  0  0  0  0  0  0  0  0
   17.6860    3.6057   -5.9738 C   0  0  0  0  0  0  0  0  0  0  0  0
   16.4392    3.6912   -5.3635 C   0  0  0  0  0  0  0  0  0  0  0  0
   15.4118    4.3856   -5.9624 C   0  0  0  0  0  0  0  0  0  0  0  0
   15.6217    5.0450   -7.1631 C   0  0  0  0  0  0  0  0  0  0  0  0
   14.4814    5.5995   -7.8594 C   0  0  0  0  0  0  0  0  0  0  0  0
   13.4491    4.9388   -8.5100 C   0  0  0  0  0  0  0  0  0  0  0  0
   13.3270    3.4778   -8.7347 C   0  0  0  0  0  0  0  0  0  0  0  0
   12.4364    5.7561   -8.9576 N   0  0  0  0  0  0  0  0  0  0  0  0
   12.7467    7.0077   -8.6997 C   0  0  0  0  0  0  0  0  0  0  0  0
   14.2291    7.2926   -7.9102 S   0  0  0  0  0  0  0  0  0  0  0  0
   16.8995    5.0827   -7.7081 C   0  0  0  0  0  0  0  0  0  0  0  0
   17.9226    4.3519   -7.1253 C   0  0  0  0  0  0  0  0  0  0  0  0
   15.7305   -0.0371   -7.2377 C   0  0  0  0  0  0  0  0  0  0  0  0
   14.4532   -0.4035   -6.5043 C   0  0  1  0  0  0  0  0  0  0  0  0
   13.3379   -0.4591   -7.3894 O   0  0  0  0  0  0  0  0  0  0  0  0
   14.7951   -1.7737   -5.9554 C   0  0  0  0  0  0  0  0  0  0  0  0
   18.0692   -7.0299   -5.1221 C   0  0  0  0  0  0  0  0  0  0  0  0
   18.1561   -4.7649   -4.0582 H   0  0  0  0  0  0  0  0  0  0  0  0
   15.3667   -4.0255   -4.7683 H   0  0  0  0  0  0  0  0  0  0  0  0
   17.8766   -3.7559   -1.9101 H   0  0  0  0  0  0  0  0  0  0  0  0
   16.7412   -3.0104   -0.7984 H   0  0  0  0  0  0  0  0  0  0  0  0
   17.3737   -2.0865   -2.1561 H   0  0  0  0  0  0  0  0  0  0  0  0
   13.8235   -2.8614   -3.1214 H   0  0  0  0  0  0  0  0  0  0  0  0
   15.0110   -1.5533   -2.9595 H   0  0  0  0  0  0  0  0  0  0  0  0
   14.4280   -2.4026   -1.5377 H   0  0  0  0  0  0  0  0  0  0  0  0
   16.0964   -5.6667   -2.1581 H   0  0  0  0  0  0  0  0  0  0  0  0
   14.4798   -5.2652   -2.7288 H   0  0  0  0  0  0  0  0  0  0  0  0
   14.9950   -4.7703   -1.1172 H   0  0  0  0  0  0  0  0  0  0  0  0
   17.6520   -0.9844   -6.9054 H   0  0  0  0  0  0  0  0  0  0  0  0
   18.6866    1.0227   -6.9121 H   0  0  0  0  0  0  0  0  0  0  0  0
   18.7012    2.5656   -4.3830 H   0  0  0  0  0  0  0  0  0  0  0  0
   19.6963    2.8301   -5.8260 H   0  0  0  0  0  0  0  0  0  0  0  0
   16.2321    3.1432   -4.4492 H   0  0  0  0  0  0  0  0  0  0  0  0
   14.4251    4.3687   -5.5070 H   0  0  0  0  0  0  0  0  0  0  0  0
   12.4362    3.2509   -9.3272 H   0  0  0  0  0  0  0  0  0  0  0  0
   13.2354    2.9375   -7.7886 H   0  0  0  0  0  0  0  0  0  0  0  0
   14.2005    3.0853   -9.2620 H   0  0  0  0  0  0  0  0  0  0  0  0
   12.1047    7.8297   -8.9609 H   0  0  0  0  0  0  0  0  0  0  0  0
   17.0907    5.6339   -8.6246 H   0  0  0  0  0  0  0  0  0  0  0  0
   18.8941    4.3231   -7.6101 H   0  0  0  0  0  0  0  0  0  0  0  0
   15.7998    1.0389   -7.4290 H   0  0  0  0  0  0  0  0  0  0  0  0
   15.7602   -0.5328   -8.2157 H   0  0  0  0  0  0  0  0  0  0  0  0
   14.2501    0.3162   -5.7019 H   0  0  0  0  0  0  0  0  0  0  0  0
   12.5311   -0.3272   -6.8607 H   0  0  0  0  0  0  0  0  0  0  0  0
   14.7212   -2.5316   -6.7393 H   0  0  0  0  0  0  0  0  0  0  0  0
   14.1516   -2.0754   -5.1300 H   0  0  0  0  0  0  0  0  0  0  0  0
   17.9696   -7.6582   -6.0118 H   0  0  0  0  0  0  0  0  0  0  0  0
   18.0472   -7.6616   -4.2311 H   0  0  0  0  0  0  0  0  0  0  0  0
   19.0246   -6.4995   -5.1786 H   0  0  0  0  0  0  0  0  0  0  0  0
  1  2  2  0  0  0  0
  2  3  1  0  0  0  0
  2 33  1  0  0  0  0
  4  3  1  0  0  0  0
  3 34  1  0  0  0  0
  4  5  1  0  0  0  0
  4 35  1  0  0  0  0
  4  9  1  0  0  0  0
  5  6  1  0  0  0  0
  5  7  1  0  0  0  0
  5  8  1  0  0  0  0
  6 36  1  0  0  0  0
  6 37  1  0  0  0  0
  6 38  1  0  0  0  0
  7 39  1  0  0  0  0
  7 40  1  0  0  0  0
  7 41  1  0  0  0  0
  8 42  1  0  0  0  0
  8 43  1  0  0  0  0
  8 44  1  0  0  0  0
  9 10  2  0  0  0  0
  9 11  1  0  0  0  0
 11 32  1  0  0  0  0
 12 11  1  0  0  0  0
 12 29  1  0  0  0  0
 12 45  1  0  0  0  0
 12 13  1  0  0  0  0
 13 14  2  0  0  0  0
 13 15  1  0  0  0  0
 15 46  1  0  0  0  0
 15 16  1  0  0  0  0
 16 47  1  0  0  0  0
 16 48  1  0  0  0  0
 16 17  1  0  0  0  0
 17 18  1  0  0  0  0
 17 28  2  0  0  0  0
 18 49  1  0  0  0  0
 18 19  2  0  0  0  0
 19 50  1  0  0  0  0
 19 20  1  0  0  0  0
 20 27  2  0  0  0  0
 20 21  1  0  0  0  0
 21 22  2  0  0  0  0
 21 26  1  0  0  0  0
 22 23  1  0  0  0  0
 22 24  1  0  0  0  0
 23 51  1  0  0  0  0
 23 52  1  0  0  0  0
 23 53  1  0  0  0  0
 24 25  2  0  0  0  0
 25 54  1  0  0  0  0
 25 26  1  0  0  0  0
 27 55  1  0  0  0  0
 27 28  1  0  0  0  0
 28 56  1  0  0  0  0
 30 29  1  0  0  0  0
 29 57  1  0  0  0  0
 29 58  1  0  0  0  0
 30 32  1  0  0  0  0
 30 59  1  0  0  0  0
 30 31  1  0  0  0  0
 31 60  1  0  0  0  0
 32 61  1  0  0  0  0
 32 62  1  0  0  0  0
 33 63  1  0  0  0  0
 33 64  1  0  0  0  0
 33 65  1  0  0  0  0
M  ZZC   1 o1
M  ZZC   2 c1
M  ZZC   3 n1
M  ZZC   4 c2
M  ZZC   5 c3
M  ZZC   6 c4
M  ZZC   7 c5
M  ZZC   8 c6
M  ZZC   9 c7
M  ZZC  10 o2
M  ZZC  11 n2
M  ZZC  12 c8
M  ZZC  13 c9
M  ZZC  14 o3
M  ZZC  15 n3
M  ZZC  16 c10
M  ZZC  17 c11
M  ZZC  18 c12
M  ZZC  19 c13
M  ZZC  20 c14
M  ZZC  21 c15
M  ZZC  22 c16
M  ZZC  23 c17
M  ZZC  24 n4
M  ZZC  25 c18
M  ZZC  26 s1
M  ZZC  27 c19
M  ZZC  28 c20
M  ZZC  29 c21
M  ZZC  30 c22
M  ZZC  31 o4
M  ZZC  32 c23
M  ZZC  33 c24
M  ZZC  34 h11
M  ZZC  35 h21
M  ZZC  36 h41
M  ZZC  37 h42
M  ZZC  38 h43
M  ZZC  39 h51
M  ZZC  40 h52
M  ZZC  41 h53
M  ZZC  42 h61
M  ZZC  43 h62
M  ZZC  44 h63
M  ZZC  45 h81
M  ZZC  46 h31
M  ZZC  47 h101
M  ZZC  48 h102
M  ZZC  49 h121
M  ZZC  50 h131
M  ZZC  51 h171
M  ZZC  52 h172
M  ZZC  53 h173
M  ZZC  54 h181
M  ZZC  55 h191
M  ZZC  56 h201
M  ZZC  57 h211
M  ZZC  58 h212
M  ZZC  59 h221
M  ZZC  60 h01
M  ZZC  61 h231
M  ZZC  62 h232
M  ZZC  63 h241
M  ZZC  64 h242
M  ZZC  65 h243
M  ZZM   1 7
M  ZZI   1 81
M  ZZM   2 3
M  ZZI   2 121
M  ZZM   3 10
M  ZZI   3 211
M  ZZM   4 1
M  ZZI   4 113
M  ZZM   5 1
M  ZZI   5 110
M  ZZM   6 1
M  ZZI   6 111
M  ZZM   7 1
M  ZZI   7 111
M  ZZM   8 1
M  ZZI   8 111
M  ZZM   9 3
M  ZZI   9 121
M  ZZM  10 7
M  ZZI  10 81
M  ZZM  11 10
M  ZZI  11 192
M  ZZM  12 1
M  ZZI  12 113
M  ZZM  13 3
M  ZZI  13 121
M  ZZM  14 7
M  ZZI  14 81
M  ZZM  15 10
M  ZZI  15 211
M  ZZM  16 1
M  ZZI  16 112
M  ZZM  17 37
M  ZZI  17 124
M  ZZM  18 37
M  ZZI  18 125
M  ZZM  19 37
M  ZZI  19 125
M  ZZM  20 37
M  ZZI  20 124
M  ZZM  21 63
M  ZZI  21 104
M  ZZM  22 64
M  ZZI  22 105
M  ZZM  23 1
M  ZZI  23 111
M  ZZM  24 66
M  ZZI  24 222
M  ZZM  25 63
M  ZZI  25 104
M  ZZM  26 44
M  ZZI  26 248
M  ZZM  27 37
M  ZZI  27 125
M  ZZM  28 37
M  ZZI  28 125
M  ZZM  29 1
M  ZZI  29 112
M  ZZM  30 1
M  ZZI  30 113
M  ZZM  31 6
M  ZZI  31 60
M  ZZM  32 1
M  ZZI  32 112
M  ZZM  33 1
M  ZZI  33 111
M  ZZM  34 28
M  ZZI  34 11
M  ZZM  35 5
M  ZZI  35 1
M  ZZM  36 5
M  ZZI  36 1
M  ZZM  37 5
M  ZZI  37 1
M  ZZM  38 5
M  ZZI  38 1
M  ZZM  39 5
M  ZZI  39 1
M  ZZM  40 5
M  ZZI  40 1
M  ZZM  41 5
M  ZZI  41 1
M  ZZM  42 5
M  ZZI  42 1
M  ZZM  43 5
M  ZZI  43 1
M  ZZM  44 5
M  ZZI  44 1
M  ZZM  45 5
M  ZZI  45 1
M  ZZM  46 28
M  ZZI  46 11
M  ZZM  47 5
M  ZZI  47 1
M  ZZM  48 5
M  ZZI  48 1
M  ZZM  49 5
M  ZZI  49 1
M  ZZM  50 5
M  ZZI  50 1
M  ZZM  51 5
M  ZZI  51 1
M  ZZM  52 5
M  ZZI  52 1
M  ZZM  53 5
M  ZZI  53 1
M  ZZM  54 5
M  ZZI  54 1
M  ZZM  55 5
M  ZZI  55 1
M  ZZM  56 5
M  ZZI  56 1
M  ZZM  57 5
M  ZZI  57 1
M  ZZM  58 5
M  ZZI  58 1
M  ZZM  59 5
M  ZZI  59 1
M  ZZM  60 21
M  ZZI  60 20
M  ZZM  61 5
M  ZZI  61 1
M  ZZM  62 5
M  ZZI  62 1
M  ZZM  63 5
M  ZZI  63 1
M  ZZM  64 5
M  ZZI  64 1
M  ZZM  65 5
M  ZZI  65 1
M  END
> <IX>
1

> <NAME>
VHL_4IM0_26.pdb

> <Score>
-7.715183

> <Natom>
65

> <Nflex>
8

> <Hbond>
-6.276633

> <Hphob>
-6.807876

> <VwInt>
-28.322046

> <Dsolv>
21.559545

> <SolEl>
23.570706

> <Eintl>
7.536163

> <RecConf>
ND

> <projPath>
VHL_maps/

> <NAME_>
VHL_4IM0_26.pdb

$$$$
