VHL_5G0I_7.pdb
  MOLSOFT 04032206393D

 65 67  0  0  1  0  0  0  0  0999 V2000
   18.3847   -6.7581   -5.4025 C   0  0  0  0  0  0  0  0  0  0  0  0
   17.1644   -5.8846   -5.2928 C   0  0  0  0  0  0  0  0  0  0  0  0
   16.0678   -6.2953   -5.6363 O   0  0  0  0  0  0  0  0  0  0  0  0
   17.4181   -4.6406   -4.7457 N   0  0  0  0  0  0  0  0  0  0  0  0
   16.3967   -3.6081   -4.5329 C   0  0  1  0  0  0  0  0  0  0  0  0
   15.8109   -3.6212   -3.0838 C   0  0  0  0  0  0  0  0  0  0  0  0
   16.8221   -3.1218   -2.0408 C   0  0  0  0  0  0  0  0  0  0  0  0
   14.5569   -2.7389   -3.0170 C   0  0  0  0  0  0  0  0  0  0  0  0
   15.3840   -5.0373   -2.6710 C   0  0  0  0  0  0  0  0  0  0  0  0
   17.0364   -2.2561   -4.9211 C   0  0  0  0  0  0  0  0  0  0  0  0
   18.1408   -1.9452   -4.5002 O   0  0  0  0  0  0  0  0  0  0  0  0
   16.3160   -1.3706   -5.7307 N   0  0  0  0  0  0  0  0  0  0  0  0
   16.8363   -0.0313   -6.0201 C   0  0  2  0  0  0  0  0  0  0  0  0
   16.7602    0.9248   -4.8255 C   0  0  0  0  0  0  0  0  0  0  0  0
   17.6003    1.7969   -4.6573 O   0  0  0  0  0  0  0  0  0  0  0  0
   15.5935    0.8365   -4.0864 N   0  0  0  0  0  0  0  0  0  0  0  0
   15.2732    1.7422   -2.9996 C   0  0  0  0  0  0  0  0  0  0  0  0
   15.0200    0.9998   -1.7143 C   0  0  0  0  0  0  0  0  0  0  0  0
   16.0823    0.4734   -0.9877 C   0  0  0  0  0  0  0  0  0  0  0  0
   15.8618   -0.2342    0.1816 C   0  0  0  0  0  0  0  0  0  0  0  0
   14.5706   -0.4351    0.6557 C   0  0  0  0  0  0  0  0  0  0  0  0
   14.3291   -1.1832    1.8803 C   0  0  0  0  0  0  0  0  0  0  0  0
   13.7815   -0.7847    3.0927 C   0  0  0  0  0  0  0  0  0  0  0  0
   13.3528    0.5832    3.4716 C   0  0  0  0  0  0  0  0  0  0  0  0
   13.6615   -1.7866    4.0364 N   0  0  0  0  0  0  0  0  0  0  0  0
   14.1306   -2.9123    3.5480 C   0  0  0  0  0  0  0  0  0  0  0  0
   14.7453   -2.8489    1.9567 S   0  0  0  0  0  0  0  0  0  0  0  0
   13.5085    0.0947   -0.0668 C   0  0  0  0  0  0  0  0  0  0  0  0
   13.7281    0.8039   -1.2362 C   0  0  0  0  0  0  0  0  0  0  0  0
   15.9541    0.5123   -7.1429 C   0  0  0  0  0  0  0  0  0  0  0  0
   15.3523   -0.7195   -7.7866 C   0  0  1  0  0  0  0  0  0  0  0  0
   16.1937   -1.1883   -8.8495 O   0  0  0  0  0  0  0  0  0  0  0  0
   15.2639   -1.7370   -6.6564 C   0  0  0  0  0  0  0  0  0  0  0  0
   19.2986   -6.1605   -5.4742 H   0  0  0  0  0  0  0  0  0  0  0  0
   18.3074   -7.3729   -6.3035 H   0  0  0  0  0  0  0  0  0  0  0  0
   18.4356   -7.4092   -4.5269 H   0  0  0  0  0  0  0  0  0  0  0  0
   18.3689   -4.4272   -4.4673 H   0  0  0  0  0  0  0  0  0  0  0  0
   15.5878   -3.8244   -5.2190 H   0  0  0  0  0  0  0  0  0  0  0  0
   16.4281   -3.2198   -1.0247 H   0  0  0  0  0  0  0  0  0  0  0  0
   17.0735   -2.0683   -2.1837 H   0  0  0  0  0  0  0  0  0  0  0  0
   17.7541   -3.6881   -2.0809 H   0  0  0  0  0  0  0  0  0  0  0  0
   14.7879   -1.6934   -3.2447 H   0  0  0  0  0  0  0  0  0  0  0  0
   14.1014   -2.7639   -2.0219 H   0  0  0  0  0  0  0  0  0  0  0  0
   13.8007   -3.0585   -3.7323 H   0  0  0  0  0  0  0  0  0  0  0  0
   14.9167   -5.0427   -1.6817 H   0  0  0  0  0  0  0  0  0  0  0  0
   16.2307   -5.7272   -2.6229 H   0  0  0  0  0  0  0  0  0  0  0  0
   14.6539   -5.4475   -3.3703 H   0  0  0  0  0  0  0  0  0  0  0  0
   17.8819   -0.1258   -6.3321 H   0  0  0  0  0  0  0  0  0  0  0  0
   14.9196    0.1189   -4.3248 H   0  0  0  0  0  0  0  0  0  0  0  0
   16.0749    2.4746   -2.8580 H   0  0  0  0  0  0  0  0  0  0  0  0
   14.3810    2.3005   -3.3017 H   0  0  0  0  0  0  0  0  0  0  0  0
   17.1019    0.6056   -1.3400 H   0  0  0  0  0  0  0  0  0  0  0  0
   16.7159   -0.6311    0.7227 H   0  0  0  0  0  0  0  0  0  0  0  0
   14.2245    1.2191    3.6497 H   0  0  0  0  0  0  0  0  0  0  0  0
   12.7559    0.5673    4.3885 H   0  0  0  0  0  0  0  0  0  0  0  0
   12.7462    1.0490    2.6899 H   0  0  0  0  0  0  0  0  0  0  0  0
   14.1338   -3.8310    4.1167 H   0  0  0  0  0  0  0  0  0  0  0  0
   12.4909   -0.0542    0.2793 H   0  0  0  0  0  0  0  0  0  0  0  0
   12.8754    1.2030   -1.7776 H   0  0  0  0  0  0  0  0  0  0  0  0
   15.1524    1.1470   -6.7492 H   0  0  0  0  0  0  0  0  0  0  0  0
   16.5346    1.1172   -7.8475 H   0  0  0  0  0  0  0  0  0  0  0  0
   14.3699   -0.5090   -8.2091 H   0  0  0  0  0  0  0  0  0  0  0  0
   17.1187   -1.1026   -8.5525 H   0  0  0  0  0  0  0  0  0  0  0  0
   15.4071   -2.7584   -7.0188 H   0  0  0  0  0  0  0  0  0  0  0  0
   14.3147   -1.6560   -6.1161 H   0  0  0  0  0  0  0  0  0  0  0  0
  1 34  1  0  0  0  0
  1 35  1  0  0  0  0
  1 36  1  0  0  0  0
  1  2  1  0  0  0  0
  2  3  2  0  0  0  0
  2  4  1  0  0  0  0
  4 37  1  0  0  0  0
  5  4  1  0  0  0  0
  5 38  1  0  0  0  0
  5  6  1  0  0  0  0
  5 10  1  0  0  0  0
  6  7  1  0  0  0  0
  6  8  1  0  0  0  0
  6  9  1  0  0  0  0
  7 39  1  0  0  0  0
  7 40  1  0  0  0  0
  7 41  1  0  0  0  0
  8 42  1  0  0  0  0
  8 43  1  0  0  0  0
  8 44  1  0  0  0  0
  9 45  1  0  0  0  0
  9 46  1  0  0  0  0
  9 47  1  0  0  0  0
 10 11  2  0  0  0  0
 10 12  1  0  0  0  0
 12 33  1  0  0  0  0
 13 12  1  0  0  0  0
 13 30  1  0  0  0  0
 13 48  1  0  0  0  0
 13 14  1  0  0  0  0
 14 15  2  0  0  0  0
 14 16  1  0  0  0  0
 16 49  1  0  0  0  0
 16 17  1  0  0  0  0
 17 50  1  0  0  0  0
 17 51  1  0  0  0  0
 17 18  1  0  0  0  0
 18 19  1  0  0  0  0
 18 29  2  0  0  0  0
 19 52  1  0  0  0  0
 19 20  2  0  0  0  0
 20 53  1  0  0  0  0
 20 21  1  0  0  0  0
 21 28  2  0  0  0  0
 21 22  1  0  0  0  0
 22 23  2  0  0  0  0
 22 27  1  0  0  0  0
 23 24  1  0  0  0  0
 23 25  1  0  0  0  0
 24 54  1  0  0  0  0
 24 55  1  0  0  0  0
 24 56  1  0  0  0  0
 25 26  2  0  0  0  0
 26 57  1  0  0  0  0
 26 27  1  0  0  0  0
 28 58  1  0  0  0  0
 28 29  1  0  0  0  0
 29 59  1  0  0  0  0
 31 30  1  0  0  0  0
 30 60  1  0  0  0  0
 30 61  1  0  0  0  0
 31 33  1  0  0  0  0
 31 62  1  0  0  0  0
 31 32  1  0  0  0  0
 32 63  1  0  0  0  0
 33 64  1  0  0  0  0
 33 65  1  0  0  0  0
M  ZZC   1 c1
M  ZZC   2 c2
M  ZZC   3 o1
M  ZZC   4 n1
M  ZZC   5 c3
M  ZZC   6 c4
M  ZZC   7 c5
M  ZZC   8 c6
M  ZZC   9 c7
M  ZZC  10 c8
M  ZZC  11 o2
M  ZZC  12 n2
M  ZZC  13 c9
M  ZZC  14 c10
M  ZZC  15 o3
M  ZZC  16 n3
M  ZZC  17 c11
M  ZZC  18 c12
M  ZZC  19 c13
M  ZZC  20 c14
M  ZZC  21 c15
M  ZZC  22 c16
M  ZZC  23 c17
M  ZZC  24 c18
M  ZZC  25 n4
M  ZZC  26 c19
M  ZZC  27 s1
M  ZZC  28 c20
M  ZZC  29 c21
M  ZZC  30 c22
M  ZZC  31 c23
M  ZZC  32 o4
M  ZZC  33 c24
M  ZZC  34 h11
M  ZZC  35 h12
M  ZZC  36 h13
M  ZZC  37 h01
M  ZZC  38 h31
M  ZZC  39 h51
M  ZZC  40 h52
M  ZZC  41 h53
M  ZZC  42 h61
M  ZZC  43 h62
M  ZZC  44 h63
M  ZZC  45 h71
M  ZZC  46 h72
M  ZZC  47 h73
M  ZZC  48 h91
M  ZZC  49 h02
M  ZZC  50 h111
M  ZZC  51 h112
M  ZZC  52 h131
M  ZZC  53 h141
M  ZZC  54 h181
M  ZZC  55 h182
M  ZZC  56 h183
M  ZZC  57 h191
M  ZZC  58 h201
M  ZZC  59 h211
M  ZZC  60 h221
M  ZZC  61 h222
M  ZZC  62 h231
M  ZZC  63 h41
M  ZZC  64 h241
M  ZZC  65 h242
M  ZZM   1 1
M  ZZI   1 111
M  ZZM   2 3
M  ZZI   2 121
M  ZZM   3 7
M  ZZI   3 81
M  ZZM   4 10
M  ZZI   4 211
M  ZZM   5 1
M  ZZI   5 113
M  ZZM   6 1
M  ZZI   6 110
M  ZZM   7 1
M  ZZI   7 111
M  ZZM   8 1
M  ZZI   8 111
M  ZZM   9 1
M  ZZI   9 111
M  ZZM  10 3
M  ZZI  10 121
M  ZZM  11 7
M  ZZI  11 81
M  ZZM  12 10
M  ZZI  12 192
M  ZZM  13 1
M  ZZI  13 113
M  ZZM  14 3
M  ZZI  14 121
M  ZZM  15 7
M  ZZI  15 81
M  ZZM  16 10
M  ZZI  16 211
M  ZZM  17 1
M  ZZI  17 112
M  ZZM  18 37
M  ZZI  18 124
M  ZZM  19 37
M  ZZI  19 125
M  ZZM  20 37
M  ZZI  20 125
M  ZZM  21 37
M  ZZI  21 124
M  ZZM  22 63
M  ZZI  22 104
M  ZZM  23 64
M  ZZI  23 105
M  ZZM  24 1
M  ZZI  24 111
M  ZZM  25 66
M  ZZI  25 222
M  ZZM  26 63
M  ZZI  26 104
M  ZZM  27 44
M  ZZI  27 248
M  ZZM  28 37
M  ZZI  28 125
M  ZZM  29 37
M  ZZI  29 125
M  ZZM  30 1
M  ZZI  30 112
M  ZZM  31 1
M  ZZI  31 113
M  ZZM  32 6
M  ZZI  32 60
M  ZZM  33 1
M  ZZI  33 112
M  ZZM  34 5
M  ZZI  34 1
M  ZZM  35 5
M  ZZI  35 1
M  ZZM  36 5
M  ZZI  36 1
M  ZZM  37 28
M  ZZI  37 11
M  ZZM  38 5
M  ZZI  38 1
M  ZZM  39 5
M  ZZI  39 1
M  ZZM  40 5
M  ZZI  40 1
M  ZZM  41 5
M  ZZI  41 1
M  ZZM  42 5
M  ZZI  42 1
M  ZZM  43 5
M  ZZI  43 1
M  ZZM  44 5
M  ZZI  44 1
M  ZZM  45 5
M  ZZI  45 1
M  ZZM  46 5
M  ZZI  46 1
M  ZZM  47 5
M  ZZI  47 1
M  ZZM  48 5
M  ZZI  48 1
M  ZZM  49 28
M  ZZI  49 11
M  ZZM  50 5
M  ZZI  50 1
M  ZZM  51 5
M  ZZI  51 1
M  ZZM  52 5
M  ZZI  52 1
M  ZZM  53 5
M  ZZI  53 1
M  ZZM  54 5
M  ZZI  54 1
M  ZZM  55 5
M  ZZI  55 1
M  ZZM  56 5
M  ZZI  56 1
M  ZZM  57 5
M  ZZI  57 1
M  ZZM  58 5
M  ZZI  58 1
M  ZZM  59 5
M  ZZI  59 1
M  ZZM  60 5
M  ZZI  60 1
M  ZZM  61 5
M  ZZI  61 1
M  ZZM  62 5
M  ZZI  62 1
M  ZZM  63 21
M  ZZI  63 20
M  ZZM  64 5
M  ZZI  64 1
M  ZZM  65 5
M  ZZI  65 1
M  END
> <IX>
1

> <NAME>
VHL_5G0I_7.pdb

> <Score>
-29.250516

> <Natom>
65

> <Nflex>
8

> <Hbond>
-7.572198

> <Hphob>
-6.746949

> <VwInt>
-28.100347

> <Dsolv>
15.880939

> <SolEl>
6.099979

> <Eintl>
2.985427

> <RecConf>
ND

> <projPath>
VHL_maps/

> <NAME_>
VHL_5G0I_7.pdb

$$$$
