VHL_6XJK_11.pdb
  MOLSOFT 04032206433D

 65 67  0  0  1  0  0  0  0  0999 V2000
   18.1133   -6.6539   -5.1184 C   0  0  0  0  0  0  0  0  0  0  0  0
   16.8998   -5.7788   -4.9624 C   0  0  0  0  0  0  0  0  0  0  0  0
   15.8141   -6.1349   -5.3865 O   0  0  0  0  0  0  0  0  0  0  0  0
   17.1435   -4.6027   -4.2805 N   0  0  0  0  0  0  0  0  0  0  0  0
   16.1353   -3.5638   -4.0121 C   0  0  1  0  0  0  0  0  0  0  0  0
   15.8965   -3.3676   -2.4854 C   0  0  0  0  0  0  0  0  0  0  0  0
   15.4314   -4.7057   -1.8985 C   0  0  0  0  0  0  0  0  0  0  0  0
   14.7922   -2.3470   -2.1862 C   0  0  0  0  0  0  0  0  0  0  0  0
   17.1626   -2.9050   -1.7502 C   0  0  0  0  0  0  0  0  0  0  0  0
   16.6280   -2.3251   -4.7901 C   0  0  0  0  0  0  0  0  0  0  0  0
   17.8227   -2.0565   -4.8461 O   0  0  0  0  0  0  0  0  0  0  0  0
   15.6748   -1.5547   -5.4638 N   0  0  0  0  0  0  0  0  0  0  0  0
   16.0670   -0.6435   -6.5286 C   0  0  2  0  0  0  0  0  0  0  0  0
   16.4484    0.7490   -6.0193 C   0  0  0  0  0  0  0  0  0  0  0  0
   15.9274    1.2673   -5.0409 O   0  0  0  0  0  0  0  0  0  0  0  0
   17.3782    1.3851   -6.8208 N   0  0  0  0  0  0  0  0  0  0  0  0
   17.8282    2.7409   -6.5515 C   0  0  0  0  0  0  0  0  0  0  0  0
   19.2391    3.0201   -7.0119 C   0  0  0  0  0  0  0  0  0  0  0  0
   19.6547    4.3249   -7.2687 C   0  0  0  0  0  0  0  0  0  0  0  0
   20.9646    4.6028   -7.6348 C   0  0  0  0  0  0  0  0  0  0  0  0
   21.8959    3.5787   -7.7522 C   0  0  0  0  0  0  0  0  0  0  0  0
   23.2811    3.8388   -8.1099 C   0  0  0  0  0  0  0  0  0  0  0  0
   24.3484    4.2578   -7.3286 C   0  0  0  0  0  0  0  0  0  0  0  0
   24.3166    4.5892   -5.8861 C   0  0  0  0  0  0  0  0  0  0  0  0
   25.5586    4.3379   -7.9881 N   0  0  0  0  0  0  0  0  0  0  0  0
   25.3977    4.0057   -9.2492 C   0  0  0  0  0  0  0  0  0  0  0  0
   23.8124    3.5895   -9.7245 S   0  0  0  0  0  0  0  0  0  0  0  0
   21.4823    2.2815   -7.4955 C   0  0  0  0  0  0  0  0  0  0  0  0
   20.1816    2.0064   -7.1275 C   0  0  0  0  0  0  0  0  0  0  0  0
   14.8305   -0.5736   -7.4107 C   0  0  0  0  0  0  0  0  0  0  0  0
   13.6781   -0.6930   -6.4246 C   0  0  1  0  0  0  0  0  0  0  0  0
   12.5356   -1.3080   -7.0141 O   0  0  0  0  0  0  0  0  0  0  0  0
   14.2285   -1.5834   -5.3235 C   0  0  0  0  0  0  0  0  0  0  0  0
   19.0223   -6.0539   -5.2228 H   0  0  0  0  0  0  0  0  0  0  0  0
   18.0037   -7.2716   -6.0149 H   0  0  0  0  0  0  0  0  0  0  0  0
   18.1979   -7.3038   -4.2443 H   0  0  0  0  0  0  0  0  0  0  0  0
   18.1044   -4.3969   -4.0315 H   0  0  0  0  0  0  0  0  0  0  0  0
   15.2025   -3.9100   -4.4576 H   0  0  0  0  0  0  0  0  0  0  0  0
   15.1770   -4.6021   -0.8409 H   0  0  0  0  0  0  0  0  0  0  0  0
   16.2016   -5.4742   -1.9834 H   0  0  0  0  0  0  0  0  0  0  0  0
   14.5417   -5.0830   -2.4127 H   0  0  0  0  0  0  0  0  0  0  0  0
   15.0742   -1.3404   -2.5069 H   0  0  0  0  0  0  0  0  0  0  0  0
   14.5878   -2.2835   -1.1123 H   0  0  0  0  0  0  0  0  0  0  0  0
   13.8503   -2.6247   -2.6690 H   0  0  0  0  0  0  0  0  0  0  0  0
   16.9880   -2.8148   -0.6732 H   0  0  0  0  0  0  0  0  0  0  0  0
   17.5060   -1.9286   -2.1057 H   0  0  0  0  0  0  0  0  0  0  0  0
   17.9837   -3.6079   -1.8784 H   0  0  0  0  0  0  0  0  0  0  0  0
   16.9152   -1.0658   -7.0774 H   0  0  0  0  0  0  0  0  0  0  0  0
   17.7708    0.8867   -7.6146 H   0  0  0  0  0  0  0  0  0  0  0  0
   17.1280    3.4041   -7.0711 H   0  0  0  0  0  0  0  0  0  0  0  0
   17.7507    2.9421   -5.4778 H   0  0  0  0  0  0  0  0  0  0  0  0
   18.9514    5.1476   -7.1773 H   0  0  0  0  0  0  0  0  0  0  0  0
   21.2555    5.6313   -7.8272 H   0  0  0  0  0  0  0  0  0  0  0  0
   25.2765    4.9963   -5.5556 H   0  0  0  0  0  0  0  0  0  0  0  0
   24.1036    3.7020   -5.2828 H   0  0  0  0  0  0  0  0  0  0  0  0
   23.5381    5.3270   -5.6783 H   0  0  0  0  0  0  0  0  0  0  0  0
   26.2167    3.9969   -9.9541 H   0  0  0  0  0  0  0  0  0  0  0  0
   22.1803    1.4581   -7.5824 H   0  0  0  0  0  0  0  0  0  0  0  0
   19.9118    0.9758   -6.9297 H   0  0  0  0  0  0  0  0  0  0  0  0
   14.7652    0.3407   -8.0100 H   0  0  0  0  0  0  0  0  0  0  0  0
   14.8193   -1.4200   -8.1060 H   0  0  0  0  0  0  0  0  0  0  0  0
   13.3860    0.2855   -6.0264 H   0  0  0  0  0  0  0  0  0  0  0  0
   12.1906   -0.7138   -7.7049 H   0  0  0  0  0  0  0  0  0  0  0  0
   13.8473   -2.6050   -5.3615 H   0  0  0  0  0  0  0  0  0  0  0  0
   13.9554   -1.1598   -4.3571 H   0  0  0  0  0  0  0  0  0  0  0  0
  1 34  1  0  0  0  0
  1 35  1  0  0  0  0
  1 36  1  0  0  0  0
  1  2  1  0  0  0  0
  2  3  2  0  0  0  0
  2  4  1  0  0  0  0
  4 37  1  0  0  0  0
  5  4  1  0  0  0  0
  5 38  1  0  0  0  0
  5  6  1  0  0  0  0
  5 10  1  0  0  0  0
  6  7  1  0  0  0  0
  6  8  1  0  0  0  0
  6  9  1  0  0  0  0
  7 39  1  0  0  0  0
  7 40  1  0  0  0  0
  7 41  1  0  0  0  0
  8 42  1  0  0  0  0
  8 43  1  0  0  0  0
  8 44  1  0  0  0  0
  9 45  1  0  0  0  0
  9 46  1  0  0  0  0
  9 47  1  0  0  0  0
 10 11  2  0  0  0  0
 10 12  1  0  0  0  0
 12 33  1  0  0  0  0
 13 12  1  0  0  0  0
 13 30  1  0  0  0  0
 13 48  1  0  0  0  0
 13 14  1  0  0  0  0
 14 15  2  0  0  0  0
 14 16  1  0  0  0  0
 16 49  1  0  0  0  0
 16 17  1  0  0  0  0
 17 50  1  0  0  0  0
 17 51  1  0  0  0  0
 17 18  1  0  0  0  0
 18 19  1  0  0  0  0
 18 29  2  0  0  0  0
 19 52  1  0  0  0  0
 19 20  2  0  0  0  0
 20 53  1  0  0  0  0
 20 21  1  0  0  0  0
 21 28  2  0  0  0  0
 21 22  1  0  0  0  0
 22 23  2  0  0  0  0
 22 27  1  0  0  0  0
 23 24  1  0  0  0  0
 23 25  1  0  0  0  0
 24 54  1  0  0  0  0
 24 55  1  0  0  0  0
 24 56  1  0  0  0  0
 25 26  2  0  0  0  0
 26 57  1  0  0  0  0
 26 27  1  0  0  0  0
 28 58  1  0  0  0  0
 28 29  1  0  0  0  0
 29 59  1  0  0  0  0
 31 30  1  0  0  0  0
 30 60  1  0  0  0  0
 30 61  1  0  0  0  0
 31 33  1  0  0  0  0
 31 62  1  0  0  0  0
 31 32  1  0  0  0  0
 32 63  1  0  0  0  0
 33 64  1  0  0  0  0
 33 65  1  0  0  0  0
M  ZZC   1 c1
M  ZZC   2 c2
M  ZZC   3 o1
M  ZZC   4 n1
M  ZZC   5 c3
M  ZZC   6 c4
M  ZZC   7 c5
M  ZZC   8 c6
M  ZZC   9 c7
M  ZZC  10 c8
M  ZZC  11 o2
M  ZZC  12 n2
M  ZZC  13 c9
M  ZZC  14 c10
M  ZZC  15 o3
M  ZZC  16 n3
M  ZZC  17 c11
M  ZZC  18 c12
M  ZZC  19 c13
M  ZZC  20 c14
M  ZZC  21 c15
M  ZZC  22 c16
M  ZZC  23 c17
M  ZZC  24 c18
M  ZZC  25 n4
M  ZZC  26 c19
M  ZZC  27 s1
M  ZZC  28 c20
M  ZZC  29 c21
M  ZZC  30 c22
M  ZZC  31 c23
M  ZZC  32 o4
M  ZZC  33 c24
M  ZZC  34 h11
M  ZZC  35 h12
M  ZZC  36 h13
M  ZZC  37 h01
M  ZZC  38 h31
M  ZZC  39 h51
M  ZZC  40 h52
M  ZZC  41 h53
M  ZZC  42 h61
M  ZZC  43 h62
M  ZZC  44 h63
M  ZZC  45 h71
M  ZZC  46 h72
M  ZZC  47 h73
M  ZZC  48 h91
M  ZZC  49 h02
M  ZZC  50 h111
M  ZZC  51 h112
M  ZZC  52 h131
M  ZZC  53 h141
M  ZZC  54 h181
M  ZZC  55 h182
M  ZZC  56 h183
M  ZZC  57 h191
M  ZZC  58 h201
M  ZZC  59 h211
M  ZZC  60 h221
M  ZZC  61 h222
M  ZZC  62 h231
M  ZZC  63 h41
M  ZZC  64 h241
M  ZZC  65 h242
M  ZZM   1 1
M  ZZI   1 111
M  ZZM   2 3
M  ZZI   2 121
M  ZZM   3 7
M  ZZI   3 81
M  ZZM   4 10
M  ZZI   4 211
M  ZZM   5 1
M  ZZI   5 113
M  ZZM   6 1
M  ZZI   6 110
M  ZZM   7 1
M  ZZI   7 111
M  ZZM   8 1
M  ZZI   8 111
M  ZZM   9 1
M  ZZI   9 111
M  ZZM  10 3
M  ZZI  10 121
M  ZZM  11 7
M  ZZI  11 81
M  ZZM  12 10
M  ZZI  12 192
M  ZZM  13 1
M  ZZI  13 113
M  ZZM  14 3
M  ZZI  14 121
M  ZZM  15 7
M  ZZI  15 81
M  ZZM  16 10
M  ZZI  16 211
M  ZZM  17 1
M  ZZI  17 112
M  ZZM  18 37
M  ZZI  18 124
M  ZZM  19 37
M  ZZI  19 125
M  ZZM  20 37
M  ZZI  20 125
M  ZZM  21 37
M  ZZI  21 124
M  ZZM  22 63
M  ZZI  22 104
M  ZZM  23 64
M  ZZI  23 105
M  ZZM  24 1
M  ZZI  24 111
M  ZZM  25 66
M  ZZI  25 222
M  ZZM  26 63
M  ZZI  26 104
M  ZZM  27 44
M  ZZI  27 248
M  ZZM  28 37
M  ZZI  28 125
M  ZZM  29 37
M  ZZI  29 125
M  ZZM  30 1
M  ZZI  30 112
M  ZZM  31 1
M  ZZI  31 113
M  ZZM  32 6
M  ZZI  32 60
M  ZZM  33 1
M  ZZI  33 112
M  ZZM  34 5
M  ZZI  34 1
M  ZZM  35 5
M  ZZI  35 1
M  ZZM  36 5
M  ZZI  36 1
M  ZZM  37 28
M  ZZI  37 11
M  ZZM  38 5
M  ZZI  38 1
M  ZZM  39 5
M  ZZI  39 1
M  ZZM  40 5
M  ZZI  40 1
M  ZZM  41 5
M  ZZI  41 1
M  ZZM  42 5
M  ZZI  42 1
M  ZZM  43 5
M  ZZI  43 1
M  ZZM  44 5
M  ZZI  44 1
M  ZZM  45 5
M  ZZI  45 1
M  ZZM  46 5
M  ZZI  46 1
M  ZZM  47 5
M  ZZI  47 1
M  ZZM  48 5
M  ZZI  48 1
M  ZZM  49 28
M  ZZI  49 11
M  ZZM  50 5
M  ZZI  50 1
M  ZZM  51 5
M  ZZI  51 1
M  ZZM  52 5
M  ZZI  52 1
M  ZZM  53 5
M  ZZI  53 1
M  ZZM  54 5
M  ZZI  54 1
M  ZZM  55 5
M  ZZI  55 1
M  ZZM  56 5
M  ZZI  56 1
M  ZZM  57 5
M  ZZI  57 1
M  ZZM  58 5
M  ZZI  58 1
M  ZZM  59 5
M  ZZI  59 1
M  ZZM  60 5
M  ZZI  60 1
M  ZZM  61 5
M  ZZI  61 1
M  ZZM  62 5
M  ZZI  62 1
M  ZZM  63 21
M  ZZI  63 20
M  ZZM  64 5
M  ZZI  64 1
M  ZZM  65 5
M  ZZI  65 1
M  END
> <IX>
1

> <NAME>
VHL_6XJK_11.pdb

> <Score>
-11.797474

> <Natom>
65

> <Nflex>
8

> <Hbond>
-4.959979

> <Hphob>
-6.506193

> <VwInt>
-28.093863

> <Dsolv>
16.690178

> <SolEl>
16.948964

> <Eintl>
7.833894

> <RecConf>
ND

> <projPath>
VHL_maps/

> <NAME_>
VHL_6XJK_11.pdb

$$$$
