VHL_5J79_1.pdb
  MOLSOFT 04032206413D

 65 67  0  0  1  0  0  0  0  0999 V2000
   18.1205   -6.6478   -5.1295 C   0  0  0  0  0  0  0  0  0  0  0  0
   16.9035   -5.7784   -4.9707 C   0  0  0  0  0  0  0  0  0  0  0  0
   15.8184   -6.1378   -5.3938 O   0  0  0  0  0  0  0  0  0  0  0  0
   17.1450   -4.6036   -4.2866 N   0  0  0  0  0  0  0  0  0  0  0  0
   16.1353   -3.5668   -4.0170 C   0  0  1  0  0  0  0  0  0  0  0  0
   15.8926   -3.3774   -2.4903 C   0  0  0  0  0  0  0  0  0  0  0  0
   17.1560   -2.9154   -1.7502 C   0  0  0  0  0  0  0  0  0  0  0  0
   14.7863   -2.3594   -2.1898 C   0  0  0  0  0  0  0  0  0  0  0  0
   15.4268   -4.7186   -1.9110 C   0  0  0  0  0  0  0  0  0  0  0  0
   16.6280   -2.3251   -4.7903 C   0  0  0  0  0  0  0  0  0  0  0  0
   17.8225   -2.0557   -4.8441 O   0  0  0  0  0  0  0  0  0  0  0  0
   15.6751   -1.5539   -5.4634 N   0  0  0  0  0  0  0  0  0  0  0  0
   16.0678   -0.6422   -6.5280 C   0  0  2  0  0  0  0  0  0  0  0  0
   16.4499    0.7501   -6.0185 C   0  0  0  0  0  0  0  0  0  0  0  0
   15.9282    1.2693   -5.0411 O   0  0  0  0  0  0  0  0  0  0  0  0
   17.3813    1.3849   -6.8189 N   0  0  0  0  0  0  0  0  0  0  0  0
   17.8314    2.7407   -6.5503 C   0  0  0  0  0  0  0  0  0  0  0  0
   19.2421    3.0200   -7.0115 C   0  0  0  0  0  0  0  0  0  0  0  0
   19.6578    4.3250   -7.2672 C   0  0  0  0  0  0  0  0  0  0  0  0
   20.9676    4.6028   -7.6338 C   0  0  0  0  0  0  0  0  0  0  0  0
   21.8986    3.5785   -7.7529 C   0  0  0  0  0  0  0  0  0  0  0  0
   23.2838    3.8384   -8.1106 C   0  0  0  0  0  0  0  0  0  0  0  0
   24.3512    4.2573   -7.3294 C   0  0  0  0  0  0  0  0  0  0  0  0
   24.3195    4.5887   -5.8869 C   0  0  0  0  0  0  0  0  0  0  0  0
   25.5613    4.3374   -7.9891 N   0  0  0  0  0  0  0  0  0  0  0  0
   25.4003    4.0050   -9.2502 C   0  0  0  0  0  0  0  0  0  0  0  0
   23.8150    3.5888   -9.7253 S   0  0  0  0  0  0  0  0  0  0  0  0
   21.4846    2.2812   -7.4973 C   0  0  0  0  0  0  0  0  0  0  0  0
   20.1841    2.0059   -7.1290 C   0  0  0  0  0  0  0  0  0  0  0  0
   14.8315   -0.5715   -7.4103 C   0  0  0  0  0  0  0  0  0  0  0  0
   13.6786   -0.6919   -6.4248 C   0  0  1  0  0  0  0  0  0  0  0  0
   12.5373   -1.3082   -7.0152 O   0  0  0  0  0  0  0  0  0  0  0  0
   14.2288   -1.5819   -5.3233 C   0  0  0  0  0  0  0  0  0  0  0  0
   19.0171   -6.0414   -5.2900 H   0  0  0  0  0  0  0  0  0  0  0  0
   17.9888   -7.3032   -5.9956 H   0  0  0  0  0  0  0  0  0  0  0  0
   18.2418   -7.2606   -4.2333 H   0  0  0  0  0  0  0  0  0  0  0  0
   18.1057   -4.3976   -4.0361 H   0  0  0  0  0  0  0  0  0  0  0  0
   15.2039   -3.9124   -4.4656 H   0  0  0  0  0  0  0  0  0  0  0  0
   16.9786   -2.8302   -0.6732 H   0  0  0  0  0  0  0  0  0  0  0  0
   17.4986   -1.9371   -2.1009 H   0  0  0  0  0  0  0  0  0  0  0  0
   17.9786   -3.6164   -1.8794 H   0  0  0  0  0  0  0  0  0  0  0  0
   15.0683   -1.3509   -2.5046 H   0  0  0  0  0  0  0  0  0  0  0  0
   14.5780   -2.3013   -1.1163 H   0  0  0  0  0  0  0  0  0  0  0  0
   13.8465   -2.6358   -2.6773 H   0  0  0  0  0  0  0  0  0  0  0  0
   15.1702   -4.6203   -0.8536 H   0  0  0  0  0  0  0  0  0  0  0  0
   16.1976   -5.4866   -1.9980 H   0  0  0  0  0  0  0  0  0  0  0  0
   14.5381   -5.0937   -2.4286 H   0  0  0  0  0  0  0  0  0  0  0  0
   16.9159   -1.0646   -7.0767 H   0  0  0  0  0  0  0  0  0  0  0  0
   17.7739    0.8858   -7.6123 H   0  0  0  0  0  0  0  0  0  0  0  0
   17.1310    3.4035   -7.0699 H   0  0  0  0  0  0  0  0  0  0  0  0
   17.7543    2.9423   -5.4766 H   0  0  0  0  0  0  0  0  0  0  0  0
   18.9548    5.1478   -7.1741 H   0  0  0  0  0  0  0  0  0  0  0  0
   21.2588    5.6314   -7.8251 H   0  0  0  0  0  0  0  0  0  0  0  0
   25.2819    4.9876   -5.5536 H   0  0  0  0  0  0  0  0  0  0  0  0
   24.1059    3.6974   -5.2923 H   0  0  0  0  0  0  0  0  0  0  0  0
   23.5539    5.3400   -5.6736 H   0  0  0  0  0  0  0  0  0  0  0  0
   26.2193    3.9959   -9.9551 H   0  0  0  0  0  0  0  0  0  0  0  0
   22.1823    1.4577   -7.5853 H   0  0  0  0  0  0  0  0  0  0  0  0
   19.9143    0.9751   -6.9323 H   0  0  0  0  0  0  0  0  0  0  0  0
   14.7663    0.3433   -8.0087 H   0  0  0  0  0  0  0  0  0  0  0  0
   14.8206   -1.4173   -8.1065 H   0  0  0  0  0  0  0  0  0  0  0  0
   13.3853    0.2863   -6.0268 H   0  0  0  0  0  0  0  0  0  0  0  0
   12.1916   -0.7141   -7.7058 H   0  0  0  0  0  0  0  0  0  0  0  0
   13.8470   -2.6033   -5.3605 H   0  0  0  0  0  0  0  0  0  0  0  0
   13.9562   -1.1573   -4.3571 H   0  0  0  0  0  0  0  0  0  0  0  0
  1 34  1  0  0  0  0
  1 35  1  0  0  0  0
  1 36  1  0  0  0  0
  1  2  1  0  0  0  0
  2  3  2  0  0  0  0
  2  4  1  0  0  0  0
  4 37  1  0  0  0  0
  5  4  1  0  0  0  0
  5 38  1  0  0  0  0
  5  6  1  0  0  0  0
  5 10  1  0  0  0  0
  6  7  1  0  0  0  0
  6  8  1  0  0  0  0
  6  9  1  0  0  0  0
  7 39  1  0  0  0  0
  7 40  1  0  0  0  0
  7 41  1  0  0  0  0
  8 42  1  0  0  0  0
  8 43  1  0  0  0  0
  8 44  1  0  0  0  0
  9 45  1  0  0  0  0
  9 46  1  0  0  0  0
  9 47  1  0  0  0  0
 10 11  2  0  0  0  0
 10 12  1  0  0  0  0
 12 33  1  0  0  0  0
 13 12  1  0  0  0  0
 13 30  1  0  0  0  0
 13 48  1  0  0  0  0
 13 14  1  0  0  0  0
 14 15  2  0  0  0  0
 14 16  1  0  0  0  0
 16 49  1  0  0  0  0
 16 17  1  0  0  0  0
 17 50  1  0  0  0  0
 17 51  1  0  0  0  0
 17 18  1  0  0  0  0
 18 19  1  0  0  0  0
 18 29  2  0  0  0  0
 19 52  1  0  0  0  0
 19 20  2  0  0  0  0
 20 53  1  0  0  0  0
 20 21  1  0  0  0  0
 21 28  2  0  0  0  0
 21 22  1  0  0  0  0
 22 23  2  0  0  0  0
 22 27  1  0  0  0  0
 23 24  1  0  0  0  0
 23 25  1  0  0  0  0
 24 54  1  0  0  0  0
 24 55  1  0  0  0  0
 24 56  1  0  0  0  0
 25 26  2  0  0  0  0
 26 57  1  0  0  0  0
 26 27  1  0  0  0  0
 28 58  1  0  0  0  0
 28 29  1  0  0  0  0
 29 59  1  0  0  0  0
 31 30  1  0  0  0  0
 30 60  1  0  0  0  0
 30 61  1  0  0  0  0
 31 33  1  0  0  0  0
 31 62  1  0  0  0  0
 31 32  1  0  0  0  0
 32 63  1  0  0  0  0
 33 64  1  0  0  0  0
 33 65  1  0  0  0  0
M  ZZC   1 c1
M  ZZC   2 c2
M  ZZC   3 o1
M  ZZC   4 n1
M  ZZC   5 c3
M  ZZC   6 c4
M  ZZC   7 c5
M  ZZC   8 c6
M  ZZC   9 c7
M  ZZC  10 c8
M  ZZC  11 o2
M  ZZC  12 n2
M  ZZC  13 c9
M  ZZC  14 c10
M  ZZC  15 o3
M  ZZC  16 n3
M  ZZC  17 c11
M  ZZC  18 c12
M  ZZC  19 c13
M  ZZC  20 c14
M  ZZC  21 c15
M  ZZC  22 c16
M  ZZC  23 c17
M  ZZC  24 c18
M  ZZC  25 n4
M  ZZC  26 c19
M  ZZC  27 s1
M  ZZC  28 c20
M  ZZC  29 c21
M  ZZC  30 c22
M  ZZC  31 c23
M  ZZC  32 o4
M  ZZC  33 c24
M  ZZC  34 h11
M  ZZC  35 h12
M  ZZC  36 h13
M  ZZC  37 h01
M  ZZC  38 h31
M  ZZC  39 h51
M  ZZC  40 h52
M  ZZC  41 h53
M  ZZC  42 h61
M  ZZC  43 h62
M  ZZC  44 h63
M  ZZC  45 h71
M  ZZC  46 h72
M  ZZC  47 h73
M  ZZC  48 h91
M  ZZC  49 h02
M  ZZC  50 h111
M  ZZC  51 h112
M  ZZC  52 h131
M  ZZC  53 h141
M  ZZC  54 h181
M  ZZC  55 h182
M  ZZC  56 h183
M  ZZC  57 h191
M  ZZC  58 h201
M  ZZC  59 h211
M  ZZC  60 h221
M  ZZC  61 h222
M  ZZC  62 h231
M  ZZC  63 h41
M  ZZC  64 h241
M  ZZC  65 h242
M  ZZM   1 1
M  ZZI   1 111
M  ZZM   2 3
M  ZZI   2 121
M  ZZM   3 7
M  ZZI   3 81
M  ZZM   4 10
M  ZZI   4 211
M  ZZM   5 1
M  ZZI   5 113
M  ZZM   6 1
M  ZZI   6 110
M  ZZM   7 1
M  ZZI   7 111
M  ZZM   8 1
M  ZZI   8 111
M  ZZM   9 1
M  ZZI   9 111
M  ZZM  10 3
M  ZZI  10 121
M  ZZM  11 7
M  ZZI  11 81
M  ZZM  12 10
M  ZZI  12 192
M  ZZM  13 1
M  ZZI  13 113
M  ZZM  14 3
M  ZZI  14 121
M  ZZM  15 7
M  ZZI  15 81
M  ZZM  16 10
M  ZZI  16 211
M  ZZM  17 1
M  ZZI  17 112
M  ZZM  18 37
M  ZZI  18 124
M  ZZM  19 37
M  ZZI  19 125
M  ZZM  20 37
M  ZZI  20 125
M  ZZM  21 37
M  ZZI  21 124
M  ZZM  22 63
M  ZZI  22 104
M  ZZM  23 64
M  ZZI  23 105
M  ZZM  24 1
M  ZZI  24 111
M  ZZM  25 66
M  ZZI  25 222
M  ZZM  26 63
M  ZZI  26 104
M  ZZM  27 44
M  ZZI  27 248
M  ZZM  28 37
M  ZZI  28 125
M  ZZM  29 37
M  ZZI  29 125
M  ZZM  30 1
M  ZZI  30 112
M  ZZM  31 1
M  ZZI  31 113
M  ZZM  32 6
M  ZZI  32 60
M  ZZM  33 1
M  ZZI  33 112
M  ZZM  34 5
M  ZZI  34 1
M  ZZM  35 5
M  ZZI  35 1
M  ZZM  36 5
M  ZZI  36 1
M  ZZM  37 28
M  ZZI  37 11
M  ZZM  38 5
M  ZZI  38 1
M  ZZM  39 5
M  ZZI  39 1
M  ZZM  40 5
M  ZZI  40 1
M  ZZM  41 5
M  ZZI  41 1
M  ZZM  42 5
M  ZZI  42 1
M  ZZM  43 5
M  ZZI  43 1
M  ZZM  44 5
M  ZZI  44 1
M  ZZM  45 5
M  ZZI  45 1
M  ZZM  46 5
M  ZZI  46 1
M  ZZM  47 5
M  ZZI  47 1
M  ZZM  48 5
M  ZZI  48 1
M  ZZM  49 28
M  ZZI  49 11
M  ZZM  50 5
M  ZZI  50 1
M  ZZM  51 5
M  ZZI  51 1
M  ZZM  52 5
M  ZZI  52 1
M  ZZM  53 5
M  ZZI  53 1
M  ZZM  54 5
M  ZZI  54 1
M  ZZM  55 5
M  ZZI  55 1
M  ZZM  56 5
M  ZZI  56 1
M  ZZM  57 5
M  ZZI  57 1
M  ZZM  58 5
M  ZZI  58 1
M  ZZM  59 5
M  ZZI  59 1
M  ZZM  60 5
M  ZZI  60 1
M  ZZM  61 5
M  ZZI  61 1
M  ZZM  62 5
M  ZZI  62 1
M  ZZM  63 21
M  ZZI  63 20
M  ZZM  64 5
M  ZZI  64 1
M  ZZM  65 5
M  ZZI  65 1
M  END
> <IX>
1

> <NAME>
VHL_5J79_1.pdb

> <Score>
-12.014599

> <Natom>
65

> <Nflex>
8

> <Hbond>
-4.956999

> <Hphob>
-6.478643

> <VwInt>
-28.122287

> <Dsolv>
16.875005

> <SolEl>
16.525156

> <Eintl>
7.711215

> <RecConf>
ND

> <projPath>
VHL_maps/

> <NAME_>
VHL_5J79_1.pdb

$$$$
