VHL_3MXF_9.pdb
  MOLSOFT 04032206383D

 66 68  0  0  1  0  0  0  0  0999 V2000
   16.2251    0.1205   -7.9489 C   0  0  0  0  0  0  0  0  0  0  0  0
   16.1775    1.4587   -6.7166 S   0  0  0  0  0  0  0  0  0  0  0  0
   16.1706    0.5108   -5.1143 C   0  0  0  0  0  0  0  0  0  0  0  0
   15.1097   -0.6309   -5.1384 C   0  0  2  0  0  0  0  0  0  0  0  0
   13.7756   -0.1291   -5.4843 N   0  0  0  0  0  0  0  0  0  0  0  0
   12.9250   -0.8205   -6.3143 C   0  0  0  0  0  0  0  0  0  0  0  0
   13.1904   -1.8981   -6.8189 O   0  0  0  0  0  0  0  0  0  0  0  0
   11.6237   -0.1164   -6.5432 C   0  0  0  0  0  0  0  0  0  0  0  0
   14.9406   -1.3664   -3.7984 C   0  0  0  0  0  0  0  0  0  0  0  0
   14.2864   -0.8707   -2.8892 O   0  0  0  0  0  0  0  0  0  0  0  0
   15.5374   -2.6224   -3.6566 N   0  0  0  0  0  0  0  0  0  0  0  0
   15.3143   -3.4076   -2.4529 C   0  0  2  0  0  0  0  0  0  0  0  0
   16.2943   -3.0054   -1.3464 C   0  0  0  0  0  0  0  0  0  0  0  0
   17.4369   -2.6314   -1.5739 O   0  0  0  0  0  0  0  0  0  0  0  0
   15.7813   -3.1543   -0.0711 N   0  0  0  0  0  0  0  0  0  0  0  0
   16.5430   -2.7748    1.1037 C   0  0  0  0  0  0  0  0  0  0  0  0
   16.0919   -3.5158    2.3348 C   0  0  0  0  0  0  0  0  0  0  0  0
   16.8286   -4.5889    2.8228 C   0  0  0  0  0  0  0  0  0  0  0  0
   16.3935   -5.3057    3.9232 C   0  0  0  0  0  0  0  0  0  0  0  0
   15.2118   -4.9705    4.5808 C   0  0  0  0  0  0  0  0  0  0  0  0
   14.7331   -5.7541    5.7189 C   0  0  0  0  0  0  0  0  0  0  0  0
   13.4625   -6.2283    6.0336 C   0  0  0  0  0  0  0  0  0  0  0  0
   12.2143   -6.0656    5.2504 C   0  0  0  0  0  0  0  0  0  0  0  0
   13.3760   -6.9356    7.2165 N   0  0  0  0  0  0  0  0  0  0  0  0
   14.5581   -6.9996    7.7847 C   0  0  0  0  0  0  0  0  0  0  0  0
   15.8346   -6.2312    6.9555 S   0  0  0  0  0  0  0  0  0  0  0  0
   14.4886   -3.8791    4.1030 C   0  0  0  0  0  0  0  0  0  0  0  0
   14.9180   -3.1661    2.9950 C   0  0  0  0  0  0  0  0  0  0  0  0
   15.5374   -4.8400   -2.8997 C   0  0  0  0  0  0  0  0  0  0  0  0
   16.5888   -4.7331   -3.9935 C   0  0  1  0  0  0  0  0  0  0  0  0
   16.4266   -5.7777   -4.9554 O   0  0  0  0  0  0  0  0  0  0  0  0
   16.3665   -3.3528   -4.6075 C   0  0  0  0  0  0  0  0  0  0  0  0
   15.8876    1.5597   -4.0235 C   0  0  0  0  0  0  0  0  0  0  0  0
   17.5862   -0.0331   -4.8915 C   0  0  0  0  0  0  0  0  0  0  0  0
   16.9543   -0.6480   -7.6923 H   0  0  0  0  0  0  0  0  0  0  0  0
   16.5090    0.5422   -8.9141 H   0  0  0  0  0  0  0  0  0  0  0  0
   15.2412   -0.3365   -8.0679 H   0  0  0  0  0  0  0  0  0  0  0  0
   15.3839   -1.3664   -5.8969 H   0  0  0  0  0  0  0  0  0  0  0  0
   13.4325    0.7094   -5.0282 H   0  0  0  0  0  0  0  0  0  0  0  0
   11.0847   -0.0297   -5.5969 H   0  0  0  0  0  0  0  0  0  0  0  0
   11.0190   -0.6858   -7.2517 H   0  0  0  0  0  0  0  0  0  0  0  0
   11.8103    0.8797   -6.9502 H   0  0  0  0  0  0  0  0  0  0  0  0
   14.2887   -3.2586   -2.0959 H   0  0  0  0  0  0  0  0  0  0  0  0
   14.8170   -3.4408    0.0557 H   0  0  0  0  0  0  0  0  0  0  0  0
   17.6093   -2.9439    0.9166 H   0  0  0  0  0  0  0  0  0  0  0  0
   16.4168   -1.6962    1.2460 H   0  0  0  0  0  0  0  0  0  0  0  0
   17.7494   -4.8920    2.3319 H   0  0  0  0  0  0  0  0  0  0  0  0
   16.9870   -6.1553    4.2473 H   0  0  0  0  0  0  0  0  0  0  0  0
   11.7221   -5.1184    5.4896 H   0  0  0  0  0  0  0  0  0  0  0  0
   11.4988   -6.8646    5.4571 H   0  0  0  0  0  0  0  0  0  0  0  0
   12.4343   -6.0701    4.1797 H   0  0  0  0  0  0  0  0  0  0  0  0
   14.7215   -7.5087    8.7239 H   0  0  0  0  0  0  0  0  0  0  0  0
   13.5713   -3.5684    4.5932 H   0  0  0  0  0  0  0  0  0  0  0  0
   14.3213   -2.3289    2.6433 H   0  0  0  0  0  0  0  0  0  0  0  0
   15.8568   -5.5037   -2.0929 H   0  0  0  0  0  0  0  0  0  0  0  0
   14.6115   -5.2583   -3.3065 H   0  0  0  0  0  0  0  0  0  0  0  0
   17.5973   -4.8030   -3.5783 H   0  0  0  0  0  0  0  0  0  0  0  0
   16.3587   -6.6218   -4.4722 H   0  0  0  0  0  0  0  0  0  0  0  0
   15.8978   -3.3847   -5.5924 H   0  0  0  0  0  0  0  0  0  0  0  0
   17.3188   -2.8291   -4.7186 H   0  0  0  0  0  0  0  0  0  0  0  0
   15.9431    1.1232   -3.0219 H   0  0  0  0  0  0  0  0  0  0  0  0
   14.8988    2.0183   -4.1245 H   0  0  0  0  0  0  0  0  0  0  0  0
   16.6238    2.3707   -4.0427 H   0  0  0  0  0  0  0  0  0  0  0  0
   17.8579   -0.7845   -5.6372 H   0  0  0  0  0  0  0  0  0  0  0  0
   17.6822   -0.5018   -3.9072 H   0  0  0  0  0  0  0  0  0  0  0  0
   18.3394    0.7610   -4.9352 H   0  0  0  0  0  0  0  0  0  0  0  0
  1 35  1  0  0  0  0
  1 36  1  0  0  0  0
  1 37  1  0  0  0  0
  1  2  1  0  0  0  0
  2  3  1  0  0  0  0
  3 33  1  0  0  0  0
  3 34  1  0  0  0  0
  4  3  1  0  0  0  0
  4 38  1  0  0  0  0
  4  5  1  0  0  0  0
  4  9  1  0  0  0  0
  5 39  1  0  0  0  0
  5  6  1  0  0  0  0
  6  7  2  0  0  0  0
  6  8  1  0  0  0  0
  8 40  1  0  0  0  0
  8 41  1  0  0  0  0
  8 42  1  0  0  0  0
  9 10  2  0  0  0  0
  9 11  1  0  0  0  0
 11 32  1  0  0  0  0
 12 11  1  0  0  0  0
 12 29  1  0  0  0  0
 12 43  1  0  0  0  0
 12 13  1  0  0  0  0
 13 14  2  0  0  0  0
 13 15  1  0  0  0  0
 15 44  1  0  0  0  0
 15 16  1  0  0  0  0
 16 45  1  0  0  0  0
 16 46  1  0  0  0  0
 16 17  1  0  0  0  0
 17 18  1  0  0  0  0
 17 28  2  0  0  0  0
 18 47  1  0  0  0  0
 18 19  2  0  0  0  0
 19 48  1  0  0  0  0
 19 20  1  0  0  0  0
 20 27  2  0  0  0  0
 20 21  1  0  0  0  0
 21 22  2  0  0  0  0
 21 26  1  0  0  0  0
 22 23  1  0  0  0  0
 22 24  1  0  0  0  0
 23 49  1  0  0  0  0
 23 50  1  0  0  0  0
 23 51  1  0  0  0  0
 24 25  2  0  0  0  0
 25 52  1  0  0  0  0
 25 26  1  0  0  0  0
 27 53  1  0  0  0  0
 27 28  1  0  0  0  0
 28 54  1  0  0  0  0
 30 29  1  0  0  0  0
 29 55  1  0  0  0  0
 29 56  1  0  0  0  0
 30 32  1  0  0  0  0
 30 57  1  0  0  0  0
 30 31  1  0  0  0  0
 31 58  1  0  0  0  0
 32 59  1  0  0  0  0
 32 60  1  0  0  0  0
 33 61  1  0  0  0  0
 33 62  1  0  0  0  0
 33 63  1  0  0  0  0
 34 64  1  0  0  0  0
 34 65  1  0  0  0  0
 34 66  1  0  0  0  0
M  ZZC   1 c1
M  ZZC   2 s1
M  ZZC   3 c2
M  ZZC   4 c3
M  ZZC   5 n1
M  ZZC   6 c4
M  ZZC   7 o1
M  ZZC   8 c5
M  ZZC   9 c6
M  ZZC  10 o2
M  ZZC  11 n2
M  ZZC  12 c7
M  ZZC  13 c8
M  ZZC  14 o3
M  ZZC  15 n3
M  ZZC  16 c9
M  ZZC  17 c10
M  ZZC  18 c11
M  ZZC  19 c12
M  ZZC  20 c13
M  ZZC  21 c14
M  ZZC  22 c15
M  ZZC  23 c16
M  ZZC  24 n4
M  ZZC  25 c17
M  ZZC  26 s2
M  ZZC  27 c18
M  ZZC  28 c19
M  ZZC  29 c20
M  ZZC  30 c21
M  ZZC  31 o4
M  ZZC  32 c22
M  ZZC  33 c23
M  ZZC  34 c24
M  ZZC  35 h11
M  ZZC  36 h12
M  ZZC  37 h13
M  ZZC  38 h31
M  ZZC  39 h01
M  ZZC  40 h51
M  ZZC  41 h52
M  ZZC  42 h53
M  ZZC  43 h71
M  ZZC  44 h02
M  ZZC  45 h91
M  ZZC  46 h92
M  ZZC  47 h111
M  ZZC  48 h121
M  ZZC  49 h161
M  ZZC  50 h162
M  ZZC  51 h163
M  ZZC  52 h171
M  ZZC  53 h181
M  ZZC  54 h191
M  ZZC  55 h201
M  ZZC  56 h202
M  ZZC  57 h211
M  ZZC  58 h41
M  ZZC  59 h221
M  ZZC  60 h222
M  ZZC  61 h231
M  ZZC  62 h232
M  ZZC  63 h233
M  ZZC  64 h241
M  ZZC  65 h242
M  ZZC  66 h243
M  ZZM   1 1
M  ZZI   1 111
M  ZZM   2 15
M  ZZI   2 253
M  ZZM   3 1
M  ZZI   3 110
M  ZZM   4 1
M  ZZI   4 113
M  ZZM   5 10
M  ZZI   5 211
M  ZZM   6 3
M  ZZI   6 121
M  ZZM   7 7
M  ZZI   7 81
M  ZZM   8 1
M  ZZI   8 111
M  ZZM   9 3
M  ZZI   9 121
M  ZZM  10 7
M  ZZI  10 81
M  ZZM  11 10
M  ZZI  11 192
M  ZZM  12 1
M  ZZI  12 113
M  ZZM  13 3
M  ZZI  13 121
M  ZZM  14 7
M  ZZI  14 81
M  ZZM  15 10
M  ZZI  15 211
M  ZZM  16 1
M  ZZI  16 112
M  ZZM  17 37
M  ZZI  17 124
M  ZZM  18 37
M  ZZI  18 125
M  ZZM  19 37
M  ZZI  19 125
M  ZZM  20 37
M  ZZI  20 124
M  ZZM  21 63
M  ZZI  21 104
M  ZZM  22 64
M  ZZI  22 105
M  ZZM  23 1
M  ZZI  23 111
M  ZZM  24 66
M  ZZI  24 222
M  ZZM  25 63
M  ZZI  25 104
M  ZZM  26 44
M  ZZI  26 248
M  ZZM  27 37
M  ZZI  27 125
M  ZZM  28 37
M  ZZI  28 125
M  ZZM  29 1
M  ZZI  29 112
M  ZZM  30 1
M  ZZI  30 113
M  ZZM  31 6
M  ZZI  31 60
M  ZZM  32 1
M  ZZI  32 112
M  ZZM  33 1
M  ZZI  33 111
M  ZZM  34 1
M  ZZI  34 111
M  ZZM  35 5
M  ZZI  35 1
M  ZZM  36 5
M  ZZI  36 1
M  ZZM  37 5
M  ZZI  37 1
M  ZZM  38 5
M  ZZI  38 1
M  ZZM  39 28
M  ZZI  39 11
M  ZZM  40 5
M  ZZI  40 1
M  ZZM  41 5
M  ZZI  41 1
M  ZZM  42 5
M  ZZI  42 1
M  ZZM  43 5
M  ZZI  43 1
M  ZZM  44 28
M  ZZI  44 11
M  ZZM  45 5
M  ZZI  45 1
M  ZZM  46 5
M  ZZI  46 1
M  ZZM  47 5
M  ZZI  47 1
M  ZZM  48 5
M  ZZI  48 1
M  ZZM  49 5
M  ZZI  49 1
M  ZZM  50 5
M  ZZI  50 1
M  ZZM  51 5
M  ZZI  51 1
M  ZZM  52 5
M  ZZI  52 1
M  ZZM  53 5
M  ZZI  53 1
M  ZZM  54 5
M  ZZI  54 1
M  ZZM  55 5
M  ZZI  55 1
M  ZZM  56 5
M  ZZI  56 1
M  ZZM  57 5
M  ZZI  57 1
M  ZZM  58 21
M  ZZI  58 20
M  ZZM  59 5
M  ZZI  59 1
M  ZZM  60 5
M  ZZI  60 1
M  ZZM  61 5
M  ZZI  61 1
M  ZZM  62 5
M  ZZI  62 1
M  ZZM  63 5
M  ZZI  63 1
M  ZZM  64 5
M  ZZI  64 1
M  ZZM  65 5
M  ZZI  65 1
M  ZZM  66 5
M  ZZI  66 1
M  END
> <IX>
1

> <NAME>
VHL_3MXF_9.pdb

> <Score>
-16.279277

> <Natom>
66

> <Nflex>
9

> <Hbond>
-3.040205

> <Hphob>
-6.12481

> <VwInt>
-29.987395

> <Dsolv>
17.099156

> <SolEl>
9.927076

> <Eintl>
1.212036

> <RecConf>
ND

> <projPath>
VHL_maps/

> <NAME_>
VHL_3MXF_9.pdb

$$$$
