VHL_6VS3_31.pdb
  MOLSOFT 04032206433D

 68 70  0  0  1  0  0  0  0  0999 V2000
   18.0908   -6.8049   -5.1266 C   0  0  0  0  0  0  0  0  0  0  0  0
   16.8927   -5.9043   -5.0064 C   0  0  0  0  0  0  0  0  0  0  0  0
   15.8125   -6.2375   -5.4624 O   0  0  0  0  0  0  0  0  0  0  0  0
   17.1450   -4.7344   -4.3180 N   0  0  0  0  0  0  0  0  0  0  0  0
   16.1532   -3.6777   -4.0602 C   0  0  1  0  0  0  0  0  0  0  0  0
   15.8710   -3.5063   -2.5382 C   0  0  0  0  0  0  0  0  0  0  0  0
   14.7631   -2.4871   -2.2498 C   0  0  0  0  0  0  0  0  0  0  0  0
   15.3813   -4.8521   -1.9930 C   0  0  0  0  0  0  0  0  0  0  0  0
   17.1152   -3.0596   -1.7583 C   0  0  0  0  0  0  0  0  0  0  0  0
   16.7099   -2.4433   -4.7963 C   0  0  0  0  0  0  0  0  0  0  0  0
   17.9137   -2.2152   -4.8141 O   0  0  0  0  0  0  0  0  0  0  0  0
   15.8093   -1.6176   -5.4735 N   0  0  0  0  0  0  0  0  0  0  0  0
   16.2826   -0.6522   -6.4532 C   0  0  2  0  0  0  0  0  0  0  0  0
   16.7808    0.6317   -5.7864 C   0  0  0  0  0  0  0  0  0  0  0  0
   16.3687    1.0120   -4.6988 O   0  0  0  0  0  0  0  0  0  0  0  0
   17.7047    1.3256   -6.5518 N   0  0  0  0  0  0  0  0  0  0  0  0
   18.3262    2.5661   -6.1049 C   0  0  1  0  0  0  0  0  0  0  0  0
   19.7088    2.7203   -6.7446 C   0  0  0  0  0  0  0  0  0  0  0  0
   17.4163    3.7632   -6.3357 C   0  0  0  0  0  0  0  0  0  0  0  0
   16.4704    4.1113   -5.3723 C   0  0  0  0  0  0  0  0  0  0  0  0
   15.6062    5.1767   -5.5547 C   0  0  0  0  0  0  0  0  0  0  0  0
   15.6632    5.9418   -6.7119 C   0  0  0  0  0  0  0  0  0  0  0  0
   14.7482    7.0519   -6.9281 C   0  0  0  0  0  0  0  0  0  0  0  0
   13.8079    7.2503   -7.9283 C   0  0  0  0  0  0  0  0  0  0  0  0
   13.4764    6.3120   -9.0218 C   0  0  0  0  0  0  0  0  0  0  0  0
   13.1312    8.4513   -7.8664 N   0  0  0  0  0  0  0  0  0  0  0  0
   13.5483    9.1371   -6.8261 C   0  0  0  0  0  0  0  0  0  0  0  0
   14.7447    8.3983   -5.8597 S   0  0  0  0  0  0  0  0  0  0  0  0
   16.6058    5.6104   -7.6769 C   0  0  0  0  0  0  0  0  0  0  0  0
   17.4667    4.5421   -7.4922 C   0  0  0  0  0  0  0  0  0  0  0  0
   15.0751   -0.4094   -7.3469 C   0  0  0  0  0  0  0  0  0  0  0  0
   13.8855   -0.5824   -6.4137 C   0  0  1  0  0  0  0  0  0  0  0  0
   12.7446   -1.1045   -7.0920 O   0  0  0  0  0  0  0  0  0  0  0  0
   14.3616   -1.5809   -5.3724 C   0  0  0  0  0  0  0  0  0  0  0  0
   19.0118   -6.2226   -5.2257 H   0  0  0  0  0  0  0  0  0  0  0  0
   17.9844   -7.4359   -6.0140 H   0  0  0  0  0  0  0  0  0  0  0  0
   18.1470   -7.4397   -4.2393 H   0  0  0  0  0  0  0  0  0  0  0  0
   18.1050   -4.5480   -4.0494 H   0  0  0  0  0  0  0  0  0  0  0  0
   15.2254   -3.9863   -4.5404 H   0  0  0  0  0  0  0  0  0  0  0  0
   15.0673   -1.4726   -2.5210 H   0  0  0  0  0  0  0  0  0  0  0  0
   14.5152   -2.4587   -1.1835 H   0  0  0  0  0  0  0  0  0  0  0  0
   13.8400   -2.7392   -2.7808 H   0  0  0  0  0  0  0  0  0  0  0  0
   15.1101   -4.7715   -0.9384 H   0  0  0  0  0  0  0  0  0  0  0  0
   16.1436   -5.6281   -2.0835 H   0  0  0  0  0  0  0  0  0  0  0  0
   14.4947   -5.2047   -2.5296 H   0  0  0  0  0  0  0  0  0  0  0  0
   16.9120   -2.9967   -0.6843 H   0  0  0  0  0  0  0  0  0  0  0  0
   17.4646   -2.0735   -2.0800 H   0  0  0  0  0  0  0  0  0  0  0  0
   17.9414   -3.7557   -1.8838 H   0  0  0  0  0  0  0  0  0  0  0  0
   17.1071   -1.0881   -7.0243 H   0  0  0  0  0  0  0  0  0  0  0  0
   18.0198    0.9191   -7.4276 H   0  0  0  0  0  0  0  0  0  0  0  0
   18.4893    2.4721   -5.0248 H   0  0  0  0  0  0  0  0  0  0  0  0
   20.2059    3.6230   -6.3848 H   0  0  0  0  0  0  0  0  0  0  0  0
   19.6409    2.7846   -7.8351 H   0  0  0  0  0  0  0  0  0  0  0  0
   20.3801    1.8954   -6.4954 H   0  0  0  0  0  0  0  0  0  0  0  0
   16.3925    3.5389   -4.4527 H   0  0  0  0  0  0  0  0  0  0  0  0
   14.8750    5.3982   -4.7824 H   0  0  0  0  0  0  0  0  0  0  0  0
   14.2342    6.3568   -9.8073 H   0  0  0  0  0  0  0  0  0  0  0  0
   12.5113    6.5598   -9.4653 H   0  0  0  0  0  0  0  0  0  0  0  0
   13.4172    5.2816   -8.6585 H   0  0  0  0  0  0  0  0  0  0  0  0
   13.1628   10.1166   -6.5847 H   0  0  0  0  0  0  0  0  0  0  0  0
   16.6826    6.1958   -8.5894 H   0  0  0  0  0  0  0  0  0  0  0  0
   18.1884    4.3328   -8.2730 H   0  0  0  0  0  0  0  0  0  0  0  0
   15.0774    0.5738   -7.8292 H   0  0  0  0  0  0  0  0  0  0  0  0
   15.0400   -1.1597   -8.1448 H   0  0  0  0  0  0  0  0  0  0  0  0
   13.6096    0.3677   -5.9417 H   0  0  0  0  0  0  0  0  0  0  0  0
   12.4799   -0.4671   -7.7789 H   0  0  0  0  0  0  0  0  0  0  0  0
   13.9347   -2.5772   -5.4899 H   0  0  0  0  0  0  0  0  0  0  0  0
   14.0820   -1.2147   -4.3858 H   0  0  0  0  0  0  0  0  0  0  0  0
  1 35  1  0  0  0  0
  1 36  1  0  0  0  0
  1 37  1  0  0  0  0
  1  2  1  0  0  0  0
  2  3  2  0  0  0  0
  2  4  1  0  0  0  0
  4 38  1  0  0  0  0
  5  4  1  0  0  0  0
  5 39  1  0  0  0  0
  5  6  1  0  0  0  0
  5 10  1  0  0  0  0
  6  7  1  0  0  0  0
  6  8  1  0  0  0  0
  6  9  1  0  0  0  0
  7 40  1  0  0  0  0
  7 41  1  0  0  0  0
  7 42  1  0  0  0  0
  8 43  1  0  0  0  0
  8 44  1  0  0  0  0
  8 45  1  0  0  0  0
  9 46  1  0  0  0  0
  9 47  1  0  0  0  0
  9 48  1  0  0  0  0
 10 11  2  0  0  0  0
 10 12  1  0  0  0  0
 12 34  1  0  0  0  0
 13 12  1  0  0  0  0
 13 31  1  0  0  0  0
 13 49  1  0  0  0  0
 13 14  1  0  0  0  0
 14 15  2  0  0  0  0
 14 16  1  0  0  0  0
 16 50  1  0  0  0  0
 17 16  1  0  0  0  0
 17 51  1  0  0  0  0
 17 18  1  0  0  0  0
 17 19  1  0  0  0  0
 18 52  1  0  0  0  0
 18 53  1  0  0  0  0
 18 54  1  0  0  0  0
 19 20  1  0  0  0  0
 19 30  2  0  0  0  0
 20 55  1  0  0  0  0
 20 21  2  0  0  0  0
 21 56  1  0  0  0  0
 21 22  1  0  0  0  0
 22 29  2  0  0  0  0
 22 23  1  0  0  0  0
 23 24  2  0  0  0  0
 23 28  1  0  0  0  0
 24 25  1  0  0  0  0
 24 26  1  0  0  0  0
 25 57  1  0  0  0  0
 25 58  1  0  0  0  0
 25 59  1  0  0  0  0
 26 27  2  0  0  0  0
 27 60  1  0  0  0  0
 27 28  1  0  0  0  0
 29 61  1  0  0  0  0
 29 30  1  0  0  0  0
 30 62  1  0  0  0  0
 32 31  1  0  0  0  0
 31 63  1  0  0  0  0
 31 64  1  0  0  0  0
 32 34  1  0  0  0  0
 32 65  1  0  0  0  0
 32 33  1  0  0  0  0
 33 66  1  0  0  0  0
 34 67  1  0  0  0  0
 34 68  1  0  0  0  0
M  ZZC   1 c1
M  ZZC   2 c2
M  ZZC   3 o1
M  ZZC   4 n1
M  ZZC   5 c3
M  ZZC   6 c4
M  ZZC   7 c5
M  ZZC   8 c6
M  ZZC   9 c7
M  ZZC  10 c8
M  ZZC  11 o2
M  ZZC  12 n2
M  ZZC  13 c9
M  ZZC  14 c10
M  ZZC  15 o3
M  ZZC  16 n3
M  ZZC  17 c11
M  ZZC  18 c12
M  ZZC  19 c13
M  ZZC  20 c14
M  ZZC  21 c15
M  ZZC  22 c16
M  ZZC  23 c17
M  ZZC  24 c18
M  ZZC  25 c19
M  ZZC  26 n4
M  ZZC  27 c20
M  ZZC  28 s1
M  ZZC  29 c21
M  ZZC  30 c22
M  ZZC  31 c23
M  ZZC  32 c24
M  ZZC  33 o4
M  ZZC  34 c25
M  ZZC  35 h11
M  ZZC  36 h12
M  ZZC  37 h13
M  ZZC  38 h01
M  ZZC  39 h31
M  ZZC  40 h51
M  ZZC  41 h52
M  ZZC  42 h53
M  ZZC  43 h61
M  ZZC  44 h62
M  ZZC  45 h63
M  ZZC  46 h71
M  ZZC  47 h72
M  ZZC  48 h73
M  ZZC  49 h91
M  ZZC  50 h02
M  ZZC  51 h111
M  ZZC  52 h121
M  ZZC  53 h122
M  ZZC  54 h123
M  ZZC  55 h141
M  ZZC  56 h151
M  ZZC  57 h191
M  ZZC  58 h192
M  ZZC  59 h193
M  ZZC  60 h201
M  ZZC  61 h211
M  ZZC  62 h221
M  ZZC  63 h231
M  ZZC  64 h232
M  ZZC  65 h241
M  ZZC  66 h41
M  ZZC  67 h251
M  ZZC  68 h252
M  ZZM   1 1
M  ZZI   1 111
M  ZZM   2 3
M  ZZI   2 121
M  ZZM   3 7
M  ZZI   3 81
M  ZZM   4 10
M  ZZI   4 211
M  ZZM   5 1
M  ZZI   5 113
M  ZZM   6 1
M  ZZI   6 110
M  ZZM   7 1
M  ZZI   7 111
M  ZZM   8 1
M  ZZI   8 111
M  ZZM   9 1
M  ZZI   9 111
M  ZZM  10 3
M  ZZI  10 121
M  ZZM  11 7
M  ZZI  11 81
M  ZZM  12 10
M  ZZI  12 192
M  ZZM  13 1
M  ZZI  13 113
M  ZZM  14 3
M  ZZI  14 121
M  ZZM  15 7
M  ZZI  15 81
M  ZZM  16 10
M  ZZI  16 211
M  ZZM  17 1
M  ZZI  17 113
M  ZZM  18 1
M  ZZI  18 111
M  ZZM  19 37
M  ZZI  19 124
M  ZZM  20 37
M  ZZI  20 125
M  ZZM  21 37
M  ZZI  21 125
M  ZZM  22 37
M  ZZI  22 124
M  ZZM  23 63
M  ZZI  23 104
M  ZZM  24 64
M  ZZI  24 105
M  ZZM  25 1
M  ZZI  25 111
M  ZZM  26 66
M  ZZI  26 222
M  ZZM  27 63
M  ZZI  27 104
M  ZZM  28 44
M  ZZI  28 248
M  ZZM  29 37
M  ZZI  29 125
M  ZZM  30 37
M  ZZI  30 125
M  ZZM  31 1
M  ZZI  31 112
M  ZZM  32 1
M  ZZI  32 113
M  ZZM  33 6
M  ZZI  33 60
M  ZZM  34 1
M  ZZI  34 112
M  ZZM  35 5
M  ZZI  35 1
M  ZZM  36 5
M  ZZI  36 1
M  ZZM  37 5
M  ZZI  37 1
M  ZZM  38 28
M  ZZI  38 11
M  ZZM  39 5
M  ZZI  39 1
M  ZZM  40 5
M  ZZI  40 1
M  ZZM  41 5
M  ZZI  41 1
M  ZZM  42 5
M  ZZI  42 1
M  ZZM  43 5
M  ZZI  43 1
M  ZZM  44 5
M  ZZI  44 1
M  ZZM  45 5
M  ZZI  45 1
M  ZZM  46 5
M  ZZI  46 1
M  ZZM  47 5
M  ZZI  47 1
M  ZZM  48 5
M  ZZI  48 1
M  ZZM  49 5
M  ZZI  49 1
M  ZZM  50 28
M  ZZI  50 11
M  ZZM  51 5
M  ZZI  51 1
M  ZZM  52 5
M  ZZI  52 1
M  ZZM  53 5
M  ZZI  53 1
M  ZZM  54 5
M  ZZI  54 1
M  ZZM  55 5
M  ZZI  55 1
M  ZZM  56 5
M  ZZI  56 1
M  ZZM  57 5
M  ZZI  57 1
M  ZZM  58 5
M  ZZI  58 1
M  ZZM  59 5
M  ZZI  59 1
M  ZZM  60 5
M  ZZI  60 1
M  ZZM  61 5
M  ZZI  61 1
M  ZZM  62 5
M  ZZI  62 1
M  ZZM  63 5
M  ZZI  63 1
M  ZZM  64 5
M  ZZI  64 1
M  ZZM  65 5
M  ZZI  65 1
M  ZZM  66 21
M  ZZI  66 20
M  ZZM  67 5
M  ZZI  67 1
M  ZZM  68 5
M  ZZI  68 1
M  END
> <IX>
1

> <NAME>
VHL_6VS3_31.pdb

> <Score>
-2.107953

> <Natom>
68

> <Nflex>
8

> <Hbond>
-4.874504

> <Hphob>
-6.82343

> <VwInt>
-27.583072

> <Dsolv>
22.923966

> <SolEl>
23.618476

> <Eintl>
7.996906

> <RecConf>
ND

> <projPath>
VHL_maps/

> <NAME_>
VHL_6VS3_31.pdb

$$$$
