VHL_1ERR_28.pdb
  MOLSOFT 04032206343D

 59 60  0  0  1  0  0  0  0  0999 V2000
   22.3962    5.1428   -9.2253 Cl  0  0  0  0  0  0  0  0  0  0  0  0
   21.1512    4.3913   -8.2930 C   0  0  0  0  0  0  0  0  0  0  0  0
   21.3213    3.0983   -7.8339 C   0  0  0  0  0  0  0  0  0  0  0  0
   20.3200    2.4947   -7.0946 C   0  0  0  0  0  0  0  0  0  0  0  0
   19.1483    3.1806   -6.7731 C   0  0  0  0  0  0  0  0  0  0  0  0
   18.0865    2.5767   -5.8747 C   0  0  1  0  0  0  0  0  0  0  0  0
   17.5915    1.2988   -6.3703 N   0  0  0  0  0  0  0  0  0  0  0  0
   16.4163    0.7468   -5.8906 C   0  0  0  0  0  0  0  0  0  0  0  0
   15.6965    1.3006   -5.0699 O   0  0  0  0  0  0  0  0  0  0  0  0
   16.0744   -0.6159   -6.4977 C   0  0  1  0  0  0  0  0  0  0  0  0
   15.6781   -1.5694   -5.4717 N   0  0  0  0  0  0  0  0  0  0  0  0
   16.6295   -2.3453   -4.8013 C   0  0  0  0  0  0  0  0  0  0  0  0
   17.8229   -2.0680   -4.8409 O   0  0  0  0  0  0  0  0  0  0  0  0
   16.1369   -3.5967   -4.0434 C   0  0  1  0  0  0  0  0  0  0  0  0
   17.1524   -4.6276   -4.3159 N   0  0  0  0  0  0  0  0  0  0  0  0
   16.9192   -5.8105   -4.9907 C   0  0  0  0  0  0  0  0  0  0  0  0
   15.8345   -6.1742   -5.4114 O   0  0  0  0  0  0  0  0  0  0  0  0
   18.1439   -6.6682   -5.1537 C   0  0  0  0  0  0  0  0  0  0  0  0
   15.8830   -3.4229   -2.5167 C   0  0  0  0  0  0  0  0  0  0  0  0
   15.4174   -4.7718   -1.9552 C   0  0  0  0  0  0  0  0  0  0  0  0
   17.1396   -2.9636   -1.7636 C   0  0  0  0  0  0  0  0  0  0  0  0
   14.7713   -2.4121   -2.2122 C   0  0  0  0  0  0  0  0  0  0  0  0
   14.2312   -1.6045   -5.3382 C   0  0  0  0  0  0  0  0  0  0  0  0
   13.6797   -0.6999   -6.4271 C   0  0  2  0  0  0  0  0  0  0  0  0
   12.5639   -1.3280   -7.0517 O   0  0  0  0  0  0  0  0  0  0  0  0
   14.8462   -0.5230   -7.3895 C   0  0  0  0  0  0  0  0  0  0  0  0
   18.6142    2.4475   -4.4431 C   0  0  0  0  0  0  0  0  0  0  0  0
   18.9939    4.4793   -7.2567 C   0  0  0  0  0  0  0  0  0  0  0  0
   19.9846    5.0804   -8.0145 C   0  0  0  0  0  0  0  0  0  0  0  0
   22.2309    2.5487   -8.0561 H   0  0  0  0  0  0  0  0  0  0  0  0
   20.4688    1.4756   -6.7582 H   0  0  0  0  0  0  0  0  0  0  0  0
   17.2225    3.2507   -5.8506 H   0  0  0  0  0  0  0  0  0  0  0  0
   18.1466    0.7811   -7.0454 H   0  0  0  0  0  0  0  0  0  0  0  0
   16.9361   -1.0014   -7.0523 H   0  0  0  0  0  0  0  0  0  0  0  0
   15.2095   -3.9415   -4.4994 H   0  0  0  0  0  0  0  0  0  0  0  0
   18.1105   -4.4139   -4.0660 H   0  0  0  0  0  0  0  0  0  0  0  0
   18.0459   -7.2738   -6.0596 H   0  0  0  0  0  0  0  0  0  0  0  0
   18.2323   -7.3299   -4.2888 H   0  0  0  0  0  0  0  0  0  0  0  0
   19.0464   -6.0565   -5.2440 H   0  0  0  0  0  0  0  0  0  0  0  0
   15.1559   -4.6864   -0.8981 H   0  0  0  0  0  0  0  0  0  0  0  0
   16.1890   -5.5383   -2.0477 H   0  0  0  0  0  0  0  0  0  0  0  0
   14.5308   -5.1416   -2.4802 H   0  0  0  0  0  0  0  0  0  0  0  0
   16.9552   -2.8911   -0.6868 H   0  0  0  0  0  0  0  0  0  0  0  0
   17.4798   -1.9798   -2.1014 H   0  0  0  0  0  0  0  0  0  0  0  0
   17.9659   -3.6592   -1.8955 H   0  0  0  0  0  0  0  0  0  0  0  0
   15.0521   -1.3992   -2.5138 H   0  0  0  0  0  0  0  0  0  0  0  0
   14.5566   -2.3666   -1.1393 H   0  0  0  0  0  0  0  0  0  0  0  0
   13.8353   -2.6864   -2.7081 H   0  0  0  0  0  0  0  0  0  0  0  0
   13.8522   -2.6259   -5.3856 H   0  0  0  0  0  0  0  0  0  0  0  0
   13.9559   -1.1916   -4.3678 H   0  0  0  0  0  0  0  0  0  0  0  0
   13.3510    0.2586   -6.0098 H   0  0  0  0  0  0  0  0  0  0  0  0
   12.2172   -0.7254   -7.7343 H   0  0  0  0  0  0  0  0  0  0  0  0
   14.7798    0.4173   -7.9469 H   0  0  0  0  0  0  0  0  0  0  0  0
   14.8556   -1.3364   -8.1233 H   0  0  0  0  0  0  0  0  0  0  0  0
   19.3957    1.6865   -4.3686 H   0  0  0  0  0  0  0  0  0  0  0  0
   17.8226    2.1510   -3.7492 H   0  0  0  0  0  0  0  0  0  0  0  0
   19.0328    3.3930   -4.0838 H   0  0  0  0  0  0  0  0  0  0  0  0
   18.0944    5.0459   -7.0332 H   0  0  0  0  0  0  0  0  0  0  0  0
   19.8420    6.0934   -8.3788 H   0  0  0  0  0  0  0  0  0  0  0  0
  2  1  1  0  0  0  0
  2  3  1  0  0  0  0
  2 29  2  0  0  0  0
  3 30  1  0  0  0  0
  3  4  2  0  0  0  0
  4 31  1  0  0  0  0
  4  5  1  0  0  0  0
  5 28  2  0  0  0  0
  6  5  1  0  0  0  0
  6 32  1  0  0  0  0
  6 27  1  0  0  0  0
  6  7  1  0  0  0  0
  7 33  1  0  0  0  0
  7  8  1  0  0  0  0
  8  9  2  0  0  0  0
 10  8  1  0  0  0  0
 10 34  1  0  0  0  0
 10 26  1  0  0  0  0
 10 11  1  0  0  0  0
 11 23  1  0  0  0  0
 11 12  1  0  0  0  0
 12 13  2  0  0  0  0
 14 12  1  0  0  0  0
 14 35  1  0  0  0  0
 14 19  1  0  0  0  0
 14 15  1  0  0  0  0
 15 36  1  0  0  0  0
 15 16  1  0  0  0  0
 16 17  2  0  0  0  0
 16 18  1  0  0  0  0
 18 37  1  0  0  0  0
 18 38  1  0  0  0  0
 18 39  1  0  0  0  0
 19 20  1  0  0  0  0
 19 21  1  0  0  0  0
 19 22  1  0  0  0  0
 20 40  1  0  0  0  0
 20 41  1  0  0  0  0
 20 42  1  0  0  0  0
 21 43  1  0  0  0  0
 21 44  1  0  0  0  0
 21 45  1  0  0  0  0
 22 46  1  0  0  0  0
 22 47  1  0  0  0  0
 22 48  1  0  0  0  0
 24 23  1  0  0  0  0
 23 49  1  0  0  0  0
 23 50  1  0  0  0  0
 24 26  1  0  0  0  0
 24 51  1  0  0  0  0
 24 25  1  0  0  0  0
 25 52  1  0  0  0  0
 26 53  1  0  0  0  0
 26 54  1  0  0  0  0
 27 55  1  0  0  0  0
 27 56  1  0  0  0  0
 27 57  1  0  0  0  0
 28 58  1  0  0  0  0
 28 29  1  0  0  0  0
 29 59  1  0  0  0  0
M  ZZC   1 &Cl1
M  ZZC   2 c1
M  ZZC   3 c2
M  ZZC   4 c3
M  ZZC   5 c4
M  ZZC   6 c5
M  ZZC   7 n1
M  ZZC   8 c6
M  ZZC   9 o1
M  ZZC  10 c7
M  ZZC  11 n2
M  ZZC  12 c8
M  ZZC  13 o2
M  ZZC  14 c9
M  ZZC  15 n3
M  ZZC  16 c10
M  ZZC  17 o3
M  ZZC  18 c11
M  ZZC  19 c12
M  ZZC  20 c13
M  ZZC  21 c14
M  ZZC  22 c15
M  ZZC  23 c16
M  ZZC  24 c17
M  ZZC  25 o4
M  ZZC  26 c18
M  ZZC  27 c19
M  ZZC  28 c20
M  ZZC  29 c21
M  ZZC  30 h21
M  ZZC  31 h31
M  ZZC  32 h51
M  ZZC  33 h11
M  ZZC  34 h71
M  ZZC  35 h91
M  ZZC  36 h01
M  ZZC  37 h111
M  ZZC  38 h112
M  ZZC  39 h113
M  ZZC  40 h131
M  ZZC  41 h132
M  ZZC  42 h133
M  ZZC  43 h141
M  ZZC  44 h142
M  ZZC  45 h143
M  ZZC  46 h151
M  ZZC  47 h152
M  ZZC  48 h153
M  ZZC  49 h161
M  ZZC  50 h162
M  ZZC  51 h171
M  ZZC  52 h41
M  ZZC  53 h181
M  ZZC  54 h182
M  ZZC  55 h191
M  ZZC  56 h192
M  ZZC  57 h193
M  ZZC  58 h201
M  ZZC  59 h211
M  ZZM   1 12
M  ZZI   1 92
M  ZZM   2 37
M  ZZI   2 124
M  ZZM   3 37
M  ZZI   3 125
M  ZZM   4 37
M  ZZI   4 125
M  ZZM   5 37
M  ZZI   5 124
M  ZZM   6 1
M  ZZI   6 113
M  ZZM   7 10
M  ZZI   7 211
M  ZZM   8 3
M  ZZI   8 121
M  ZZM   9 7
M  ZZI   9 81
M  ZZM  10 1
M  ZZI  10 113
M  ZZM  11 10
M  ZZI  11 192
M  ZZM  12 3
M  ZZI  12 121
M  ZZM  13 7
M  ZZI  13 81
M  ZZM  14 1
M  ZZI  14 113
M  ZZM  15 10
M  ZZI  15 211
M  ZZM  16 3
M  ZZI  16 121
M  ZZM  17 7
M  ZZI  17 81
M  ZZM  18 1
M  ZZI  18 111
M  ZZM  19 1
M  ZZI  19 110
M  ZZM  20 1
M  ZZI  20 111
M  ZZM  21 1
M  ZZI  21 111
M  ZZM  22 1
M  ZZI  22 111
M  ZZM  23 1
M  ZZI  23 112
M  ZZM  24 1
M  ZZI  24 113
M  ZZM  25 6
M  ZZI  25 60
M  ZZM  26 1
M  ZZI  26 112
M  ZZM  27 1
M  ZZI  27 111
M  ZZM  28 37
M  ZZI  28 125
M  ZZM  29 37
M  ZZI  29 125
M  ZZM  30 5
M  ZZI  30 1
M  ZZM  31 5
M  ZZI  31 1
M  ZZM  32 5
M  ZZI  32 1
M  ZZM  33 28
M  ZZI  33 11
M  ZZM  34 5
M  ZZI  34 1
M  ZZM  35 5
M  ZZI  35 1
M  ZZM  36 28
M  ZZI  36 11
M  ZZM  37 5
M  ZZI  37 1
M  ZZM  38 5
M  ZZI  38 1
M  ZZM  39 5
M  ZZI  39 1
M  ZZM  40 5
M  ZZI  40 1
M  ZZM  41 5
M  ZZI  41 1
M  ZZM  42 5
M  ZZI  42 1
M  ZZM  43 5
M  ZZI  43 1
M  ZZM  44 5
M  ZZI  44 1
M  ZZM  45 5
M  ZZI  45 1
M  ZZM  46 5
M  ZZI  46 1
M  ZZM  47 5
M  ZZI  47 1
M  ZZM  48 5
M  ZZI  48 1
M  ZZM  49 5
M  ZZI  49 1
M  ZZM  50 5
M  ZZI  50 1
M  ZZM  51 5
M  ZZI  51 1
M  ZZM  52 21
M  ZZI  52 20
M  ZZM  53 5
M  ZZI  53 1
M  ZZM  54 5
M  ZZI  54 1
M  ZZM  55 5
M  ZZI  55 1
M  ZZM  56 5
M  ZZI  56 1
M  ZZM  57 5
M  ZZI  57 1
M  ZZM  58 5
M  ZZI  58 1
M  ZZM  59 5
M  ZZI  59 1
M  END
> <IX>
1

> <NAME>
VHL_1ERR_28.pdb

> <Score>
-10.044189

> <Natom>
59

> <Nflex>
8

> <Hbond>
-5.012559

> <Hphob>
-6.345738

> <VwInt>
-23.856313

> <Dsolv>
16.513721

> <SolEl>
16.627044

> <Eintl>
4.310673

> <RecConf>
ND

> <projPath>
VHL_maps/

> <NAME_>
VHL_1ERR_28.pdb

$$$$
