VHL_5LLI_7.pdb
  MOLSOFT 04032206423D

 65 67  0  0  1  0  0  0  0  0999 V2000
    3.3207   -1.9264  -14.9671 O   0  0  0  0  0  0  0  0  0  0  0  0
    2.9233   -2.1517  -16.1001 C   0  0  0  0  0  0  0  0  0  0  0  0
    3.3471   -1.4879  -17.2327 N   0  0  0  0  0  0  0  0  0  0  0  0
    4.3476   -0.4210  -17.1806 C   0  0  2  0  0  0  0  0  0  0  0  0
    4.0258    0.7403  -18.1712 C   0  0  0  0  0  0  0  0  0  0  0  0
    4.2871    0.3749  -19.6424 C   0  0  0  0  0  0  0  0  0  0  0  0
    4.8943    1.9525  -17.8157 C   0  0  0  0  0  0  0  0  0  0  0  0
    2.5468    1.1539  -18.0555 C   0  0  0  0  0  0  0  0  0  0  0  0
    5.7092   -1.0919  -17.4488 C   0  0  0  0  0  0  0  0  0  0  0  0
    5.8451   -1.8968  -18.3620 O   0  0  0  0  0  0  0  0  0  0  0  0
    6.7865   -0.7383  -16.6341 N   0  0  0  0  0  0  0  0  0  0  0  0
    8.1012   -1.3263  -16.8524 C   0  0  1  0  0  0  0  0  0  0  0  0
    8.9000   -0.6737  -17.9807 C   0  0  0  0  0  0  0  0  0  0  0  0
    8.5742    0.3672  -18.5336 O   0  0  0  0  0  0  0  0  0  0  0  0
   10.0587   -1.3718  -18.2594 N   0  0  0  0  0  0  0  0  0  0  0  0
   11.1029   -0.8755  -19.1285 C   0  0  0  0  0  0  0  0  0  0  0  0
   12.4447   -1.3725  -18.6556 C   0  0  0  0  0  0  0  0  0  0  0  0
   12.9767   -0.9189  -17.4527 C   0  0  0  0  0  0  0  0  0  0  0  0
   14.1732   -1.4213  -16.9720 C   0  0  0  0  0  0  0  0  0  0  0  0
   14.8740   -2.3873  -17.6854 C   0  0  0  0  0  0  0  0  0  0  0  0
   16.1142   -2.9296  -17.1524 C   0  0  0  0  0  0  0  0  0  0  0  0
   16.3352   -3.7362  -16.0466 C   0  0  0  0  0  0  0  0  0  0  0  0
   15.3061   -4.3619  -15.1964 C   0  0  0  0  0  0  0  0  0  0  0  0
   17.6589   -3.9684  -15.7394 N   0  0  0  0  0  0  0  0  0  0  0  0
   18.4180   -3.4378  -16.6724 C   0  0  0  0  0  0  0  0  0  0  0  0
   17.6128   -2.5887  -17.9183 S   0  0  0  0  0  0  0  0  0  0  0  0
   14.3527   -2.8326  -18.8947 C   0  0  0  0  0  0  0  0  0  0  0  0
   13.1524   -2.3322  -19.3731 C   0  0  0  0  0  0  0  0  0  0  0  0
    8.8285   -1.1461  -15.5306 C   0  0  0  0  0  0  0  0  0  0  0  0
    8.1796    0.0644  -14.8894 C   0  0  2  0  0  0  0  0  0  0  0  0
    8.2327   -0.0214  -13.4635 O   0  0  0  0  0  0  0  0  0  0  0  0
    6.7460    0.0250  -15.3979 C   0  0  0  0  0  0  0  0  0  0  0  0
    1.8960   -3.2086  -16.3924 C   0  0  0  0  0  0  0  0  0  0  0  0
    3.0458   -1.8246  -18.1412 H   0  0  0  0  0  0  0  0  0  0  0  0
    4.3288   -0.0313  -16.1587 H   0  0  0  0  0  0  0  0  0  0  0  0
    3.7424   -0.5261  -19.9401 H   0  0  0  0  0  0  0  0  0  0  0  0
    5.3496    0.2079  -19.8429 H   0  0  0  0  0  0  0  0  0  0  0  0
    3.9669    1.1797  -20.3124 H   0  0  0  0  0  0  0  0  0  0  0  0
    4.7988    2.2130  -16.7605 H   0  0  0  0  0  0  0  0  0  0  0  0
    4.5957    2.8364  -18.3777 H   0  0  0  0  0  0  0  0  0  0  0  0
    5.9542    1.7747  -18.0203 H   0  0  0  0  0  0  0  0  0  0  0  0
    2.3323    2.0504  -18.6461 H   0  0  0  0  0  0  0  0  0  0  0  0
    2.2657    1.3740  -17.0236 H   0  0  0  0  0  0  0  0  0  0  0  0
    1.8720    0.3714  -18.4154 H   0  0  0  0  0  0  0  0  0  0  0  0
    7.9892   -2.3906  -17.0935 H   0  0  0  0  0  0  0  0  0  0  0  0
   10.1876   -2.2906  -17.8540 H   0  0  0  0  0  0  0  0  0  0  0  0
   10.8827   -1.2300  -20.1406 H   0  0  0  0  0  0  0  0  0  0  0  0
   11.0837    0.2196  -19.1523 H   0  0  0  0  0  0  0  0  0  0  0  0
   12.4442   -0.1737  -16.8690 H   0  0  0  0  0  0  0  0  0  0  0  0
   14.5551   -1.0554  -16.0223 H   0  0  0  0  0  0  0  0  0  0  0  0
   15.6896   -4.5730  -14.1962 H   0  0  0  0  0  0  0  0  0  0  0  0
   14.9862   -5.3083  -15.6384 H   0  0  0  0  0  0  0  0  0  0  0  0
   14.4429   -3.7048  -15.0882 H   0  0  0  0  0  0  0  0  0  0  0  0
   19.4935   -3.5246  -16.6607 H   0  0  0  0  0  0  0  0  0  0  0  0
   14.8730   -3.5935  -19.4691 H   0  0  0  0  0  0  0  0  0  0  0  0
   12.7623   -2.7137  -20.3123 H   0  0  0  0  0  0  0  0  0  0  0  0
    8.6711   -2.0240  -14.9093 H   0  0  0  0  0  0  0  0  0  0  0  0
    9.9124   -1.0172  -15.6151 H   0  0  0  0  0  0  0  0  0  0  0  0
    8.6808    0.9833  -15.2053 H   0  0  0  0  0  0  0  0  0  0  0  0
    8.9730   -0.6073  -13.2177 H   0  0  0  0  0  0  0  0  0  0  0  0
    6.3635    1.0303  -15.5864 H   0  0  0  0  0  0  0  0  0  0  0  0
    6.0700   -0.4703  -14.6918 H   0  0  0  0  0  0  0  0  0  0  0  0
    1.5565   -3.6622  -15.4565 H   0  0  0  0  0  0  0  0  0  0  0  0
    2.3332   -3.9845  -17.0284 H   0  0  0  0  0  0  0  0  0  0  0  0
    1.0362   -2.7601  -16.8999 H   0  0  0  0  0  0  0  0  0  0  0  0
  1  2  2  0  0  0  0
  2  3  1  0  0  0  0
  2 33  1  0  0  0  0
  4  3  1  0  0  0  0
  3 34  1  0  0  0  0
  4  5  1  0  0  0  0
  4 35  1  0  0  0  0
  4  9  1  0  0  0  0
  5  6  1  0  0  0  0
  5  7  1  0  0  0  0
  5  8  1  0  0  0  0
  6 36  1  0  0  0  0
  6 37  1  0  0  0  0
  6 38  1  0  0  0  0
  7 39  1  0  0  0  0
  7 40  1  0  0  0  0
  7 41  1  0  0  0  0
  8 42  1  0  0  0  0
  8 43  1  0  0  0  0
  8 44  1  0  0  0  0
  9 10  2  0  0  0  0
  9 11  1  0  0  0  0
 11 32  1  0  0  0  0
 12 11  1  0  0  0  0
 12 29  1  0  0  0  0
 12 45  1  0  0  0  0
 12 13  1  0  0  0  0
 13 14  2  0  0  0  0
 13 15  1  0  0  0  0
 15 46  1  0  0  0  0
 15 16  1  0  0  0  0
 16 47  1  0  0  0  0
 16 48  1  0  0  0  0
 16 17  1  0  0  0  0
 17 18  1  0  0  0  0
 17 28  2  0  0  0  0
 18 49  1  0  0  0  0
 18 19  2  0  0  0  0
 19 50  1  0  0  0  0
 19 20  1  0  0  0  0
 20 27  2  0  0  0  0
 20 21  1  0  0  0  0
 21 22  2  0  0  0  0
 21 26  1  0  0  0  0
 22 23  1  0  0  0  0
 22 24  1  0  0  0  0
 23 51  1  0  0  0  0
 23 52  1  0  0  0  0
 23 53  1  0  0  0  0
 24 25  2  0  0  0  0
 25 54  1  0  0  0  0
 25 26  1  0  0  0  0
 27 55  1  0  0  0  0
 27 28  1  0  0  0  0
 28 56  1  0  0  0  0
 30 29  1  0  0  0  0
 29 57  1  0  0  0  0
 29 58  1  0  0  0  0
 30 32  1  0  0  0  0
 30 59  1  0  0  0  0
 30 31  1  0  0  0  0
 31 60  1  0  0  0  0
 32 61  1  0  0  0  0
 32 62  1  0  0  0  0
 33 63  1  0  0  0  0
 33 64  1  0  0  0  0
 33 65  1  0  0  0  0
M  ZZC   1 o1
M  ZZC   2 c1
M  ZZC   3 n1
M  ZZC   4 c2
M  ZZC   5 c3
M  ZZC   6 c4
M  ZZC   7 c5
M  ZZC   8 c6
M  ZZC   9 c7
M  ZZC  10 o2
M  ZZC  11 n2
M  ZZC  12 c8
M  ZZC  13 c9
M  ZZC  14 o3
M  ZZC  15 n3
M  ZZC  16 c10
M  ZZC  17 c11
M  ZZC  18 c12
M  ZZC  19 c13
M  ZZC  20 c14
M  ZZC  21 c15
M  ZZC  22 c16
M  ZZC  23 c17
M  ZZC  24 n4
M  ZZC  25 c18
M  ZZC  26 s1
M  ZZC  27 c19
M  ZZC  28 c20
M  ZZC  29 c21
M  ZZC  30 c22
M  ZZC  31 o4
M  ZZC  32 c23
M  ZZC  33 c24
M  ZZC  34 h11
M  ZZC  35 h21
M  ZZC  36 h41
M  ZZC  37 h42
M  ZZC  38 h43
M  ZZC  39 h51
M  ZZC  40 h52
M  ZZC  41 h53
M  ZZC  42 h61
M  ZZC  43 h62
M  ZZC  44 h63
M  ZZC  45 h81
M  ZZC  46 h31
M  ZZC  47 h101
M  ZZC  48 h102
M  ZZC  49 h121
M  ZZC  50 h131
M  ZZC  51 h171
M  ZZC  52 h172
M  ZZC  53 h173
M  ZZC  54 h181
M  ZZC  55 h191
M  ZZC  56 h201
M  ZZC  57 h211
M  ZZC  58 h212
M  ZZC  59 h221
M  ZZC  60 h01
M  ZZC  61 h231
M  ZZC  62 h232
M  ZZC  63 h241
M  ZZC  64 h242
M  ZZC  65 h243
M  ZZM   1 7
M  ZZI   1 81
M  ZZM   2 3
M  ZZI   2 121
M  ZZM   3 10
M  ZZI   3 211
M  ZZM   4 1
M  ZZI   4 113
M  ZZM   5 1
M  ZZI   5 110
M  ZZM   6 1
M  ZZI   6 111
M  ZZM   7 1
M  ZZI   7 111
M  ZZM   8 1
M  ZZI   8 111
M  ZZM   9 3
M  ZZI   9 121
M  ZZM  10 7
M  ZZI  10 81
M  ZZM  11 10
M  ZZI  11 192
M  ZZM  12 1
M  ZZI  12 113
M  ZZM  13 3
M  ZZI  13 121
M  ZZM  14 7
M  ZZI  14 81
M  ZZM  15 10
M  ZZI  15 211
M  ZZM  16 1
M  ZZI  16 112
M  ZZM  17 37
M  ZZI  17 124
M  ZZM  18 37
M  ZZI  18 125
M  ZZM  19 37
M  ZZI  19 125
M  ZZM  20 37
M  ZZI  20 124
M  ZZM  21 63
M  ZZI  21 104
M  ZZM  22 64
M  ZZI  22 105
M  ZZM  23 1
M  ZZI  23 111
M  ZZM  24 66
M  ZZI  24 222
M  ZZM  25 63
M  ZZI  25 104
M  ZZM  26 44
M  ZZI  26 248
M  ZZM  27 37
M  ZZI  27 125
M  ZZM  28 37
M  ZZI  28 125
M  ZZM  29 1
M  ZZI  29 112
M  ZZM  30 1
M  ZZI  30 113
M  ZZM  31 6
M  ZZI  31 60
M  ZZM  32 1
M  ZZI  32 112
M  ZZM  33 1
M  ZZI  33 111
M  ZZM  34 28
M  ZZI  34 11
M  ZZM  35 5
M  ZZI  35 1
M  ZZM  36 5
M  ZZI  36 1
M  ZZM  37 5
M  ZZI  37 1
M  ZZM  38 5
M  ZZI  38 1
M  ZZM  39 5
M  ZZI  39 1
M  ZZM  40 5
M  ZZI  40 1
M  ZZM  41 5
M  ZZI  41 1
M  ZZM  42 5
M  ZZI  42 1
M  ZZM  43 5
M  ZZI  43 1
M  ZZM  44 5
M  ZZI  44 1
M  ZZM  45 5
M  ZZI  45 1
M  ZZM  46 28
M  ZZI  46 11
M  ZZM  47 5
M  ZZI  47 1
M  ZZM  48 5
M  ZZI  48 1
M  ZZM  49 5
M  ZZI  49 1
M  ZZM  50 5
M  ZZI  50 1
M  ZZM  51 5
M  ZZI  51 1
M  ZZM  52 5
M  ZZI  52 1
M  ZZM  53 5
M  ZZI  53 1
M  ZZM  54 5
M  ZZI  54 1
M  ZZM  55 5
M  ZZI  55 1
M  ZZM  56 5
M  ZZI  56 1
M  ZZM  57 5
M  ZZI  57 1
M  ZZM  58 5
M  ZZI  58 1
M  ZZM  59 5
M  ZZI  59 1
M  ZZM  60 21
M  ZZI  60 20
M  ZZM  61 5
M  ZZI  61 1
M  ZZM  62 5
M  ZZI  62 1
M  ZZM  63 5
M  ZZI  63 1
M  ZZM  64 5
M  ZZI  64 1
M  ZZM  65 5
M  ZZI  65 1
M  END
> <IX>
1

> <NAME>
VHL_5LLI_7.pdb

> <Score>
-14.387834

> <Natom>
65

> <Nflex>
8

> <Hbond>
-3.685418

> <Hphob>
-6.431012

> <VwInt>
-26.395575

> <Dsolv>
16.528421

> <SolEl>
8.912214

> <Eintl>
4.270419

> <RecConf>
ND

> <projPath>
VHL_maps/

> <NAME_>
VHL_5LLI_7.pdb

$$$$
