VHL_6VS3_11.pdb
  MOLSOFT 04032206433D

 64 66  0  0  1  0  0  0  0  0999 V2000
   17.3694   -5.4372   -5.2805 C   0  0  0  0  0  0  0  0  0  0  0  0
   17.5845   -4.2288   -4.4297 N   0  3  0  0  0  0  0  0  0  0  0  0
   16.3864   -3.3097   -4.2328 C   0  0  1  0  0  0  0  0  0  0  0  0
   15.6886   -3.5281   -2.8466 C   0  0  0  0  0  0  0  0  0  0  0  0
   15.2754   -4.9950   -2.6632 C   0  0  0  0  0  0  0  0  0  0  0  0
   14.4085   -2.6770   -2.7966 C   0  0  0  0  0  0  0  0  0  0  0  0
   16.5631   -3.1494   -1.6363 C   0  0  0  0  0  0  0  0  0  0  0  0
   16.8024   -1.8420   -4.4500 C   0  0  0  0  0  0  0  0  0  0  0  0
   17.5789   -1.2875   -3.6854 O   0  0  0  0  0  0  0  0  0  0  0  0
   16.2685   -1.1738   -5.5501 N   0  0  0  0  0  0  0  0  0  0  0  0
   16.3806    0.2674   -5.6747 C   0  0  2  0  0  0  0  0  0  0  0  0
   15.2030    0.9168   -4.9388 C   0  0  0  0  0  0  0  0  0  0  0  0
   14.0357    0.6956   -5.2334 O   0  0  0  0  0  0  0  0  0  0  0  0
   15.5897    1.7753   -3.9256 N   0  0  0  0  0  0  0  0  0  0  0  0
   14.6473    2.6525   -3.2580 C   0  0  0  0  0  0  0  0  0  0  0  0
   14.4883    3.9775   -3.9655 C   0  0  0  0  0  0  0  0  0  0  0  0
   15.2215    4.3003   -5.1057 C   0  0  0  0  0  0  0  0  0  0  0  0
   15.0333    5.5001   -5.7579 C   0  0  0  0  0  0  0  0  0  0  0  0
   14.1125    6.4269   -5.2919 C   0  0  0  0  0  0  0  0  0  0  0  0
   13.9289    7.6718   -6.0212 C   0  0  0  0  0  0  0  0  0  0  0  0
   13.6541    7.8926   -7.3653 C   0  0  0  0  0  0  0  0  0  0  0  0
   13.4085    6.8734   -8.4133 C   0  0  0  0  0  0  0  0  0  0  0  0
   13.6364    9.2173   -7.7424 N   0  0  0  0  0  0  0  0  0  0  0  0
   13.8960    9.9781   -6.7030 C   0  0  0  0  0  0  0  0  0  0  0  0
   14.1287    9.1765   -5.2159 S   0  0  0  0  0  0  0  0  0  0  0  0
   13.3957    6.1289   -4.1357 C   0  0  0  0  0  0  0  0  0  0  0  0
   13.5848    4.9195   -3.4821 C   0  0  0  0  0  0  0  0  0  0  0  0
   16.2987    0.5419   -7.1672 C   0  0  0  0  0  0  0  0  0  0  0  0
   15.5697   -0.6585   -7.7658 C   0  0  1  0  0  0  0  0  0  0  0  0
   16.2449   -1.1052   -8.9480 O   0  0  0  0  0  0  0  0  0  0  0  0
   15.5775   -1.7423   -6.6893 C   0  0  0  0  0  0  0  0  0  0  0  0
   16.5759   -6.0509   -4.8496 H   0  0  0  0  0  0  0  0  0  0  0  0
   18.3104   -5.9941   -5.3065 H   0  0  0  0  0  0  0  0  0  0  0  0
   17.1039   -5.0982   -6.2821 H   0  0  0  0  0  0  0  0  0  0  0  0
   17.9746   -4.5266   -3.5302 H   0  0  0  0  0  0  0  0  0  0  0  0
   18.3510   -3.6944   -4.8627 H   0  0  0  0  0  0  0  0  0  0  0  0
   15.6820   -3.5865   -5.0140 H   0  0  0  0  0  0  0  0  0  0  0  0
   14.6939   -5.1373   -1.7481 H   0  0  0  0  0  0  0  0  0  0  0  0
   16.1397   -5.6602   -2.5904 H   0  0  0  0  0  0  0  0  0  0  0  0
   14.6559   -5.3371   -3.4932 H   0  0  0  0  0  0  0  0  0  0  0  0
   14.6321   -1.6098   -2.8873 H   0  0  0  0  0  0  0  0  0  0  0  0
   13.8705   -2.8210   -1.8539 H   0  0  0  0  0  0  0  0  0  0  0  0
   13.7186   -2.9217   -3.6095 H   0  0  0  0  0  0  0  0  0  0  0  0
   16.0748   -3.4276   -0.6965 H   0  0  0  0  0  0  0  0  0  0  0  0
   16.7473   -2.0741   -1.5755 H   0  0  0  0  0  0  0  0  0  0  0  0
   17.5324   -3.6521   -1.6507 H   0  0  0  0  0  0  0  0  0  0  0  0
   17.3302    0.6205   -5.2559 H   0  0  0  0  0  0  0  0  0  0  0  0
   16.5690    1.8570   -3.6736 H   0  0  0  0  0  0  0  0  0  0  0  0
   13.6767    2.1484   -3.1931 H   0  0  0  0  0  0  0  0  0  0  0  0
   15.0254    2.8178   -2.2439 H   0  0  0  0  0  0  0  0  0  0  0  0
   15.9539    3.6158   -5.5188 H   0  0  0  0  0  0  0  0  0  0  0  0
   15.6241    5.7079   -6.6452 H   0  0  0  0  0  0  0  0  0  0  0  0
   14.3487    6.4392   -8.7627 H   0  0  0  0  0  0  0  0  0  0  0  0
   12.9040    7.3065   -9.2812 H   0  0  0  0  0  0  0  0  0  0  0  0
   12.7901    6.0595   -8.0245 H   0  0  0  0  0  0  0  0  0  0  0  0
   13.9602   11.0543   -6.7749 H   0  0  0  0  0  0  0  0  0  0  0  0
   12.6646    6.8306   -3.7444 H   0  0  0  0  0  0  0  0  0  0  0  0
   13.0051    4.7064   -2.5885 H   0  0  0  0  0  0  0  0  0  0  0  0
   15.7808    1.4789   -7.3979 H   0  0  0  0  0  0  0  0  0  0  0  0
   17.3079    0.6359   -7.5816 H   0  0  0  0  0  0  0  0  0  0  0  0
   14.5429   -0.4013   -8.0398 H   0  0  0  0  0  0  0  0  0  0  0  0
   17.2027   -1.0370   -8.7755 H   0  0  0  0  0  0  0  0  0  0  0  0
   16.0648   -2.6684   -7.0073 H   0  0  0  0  0  0  0  0  0  0  0  0
   14.5578   -1.9742   -6.3676 H   0  0  0  0  0  0  0  0  0  0  0  0
  1 32  1  0  0  0  0
  1 33  1  0  0  0  0
  1 34  1  0  0  0  0
  1  2  1  0  0  0  0
  2 35  1  0  0  0  0
  2 36  1  0  0  0  0
  3  2  1  0  0  0  0
  3 37  1  0  0  0  0
  3  4  1  0  0  0  0
  3  8  1  0  0  0  0
  4  5  1  0  0  0  0
  4  6  1  0  0  0  0
  4  7  1  0  0  0  0
  5 38  1  0  0  0  0
  5 39  1  0  0  0  0
  5 40  1  0  0  0  0
  6 41  1  0  0  0  0
  6 42  1  0  0  0  0
  6 43  1  0  0  0  0
  7 44  1  0  0  0  0
  7 45  1  0  0  0  0
  7 46  1  0  0  0  0
  8  9  2  0  0  0  0
  8 10  1  0  0  0  0
 10 31  1  0  0  0  0
 11 10  1  0  0  0  0
 11 28  1  0  0  0  0
 11 47  1  0  0  0  0
 11 12  1  0  0  0  0
 12 13  2  0  0  0  0
 12 14  1  0  0  0  0
 14 48  1  0  0  0  0
 14 15  1  0  0  0  0
 15 49  1  0  0  0  0
 15 50  1  0  0  0  0
 15 16  1  0  0  0  0
 16 17  1  0  0  0  0
 16 27  2  0  0  0  0
 17 51  1  0  0  0  0
 17 18  2  0  0  0  0
 18 52  1  0  0  0  0
 18 19  1  0  0  0  0
 19 26  2  0  0  0  0
 19 20  1  0  0  0  0
 20 21  2  0  0  0  0
 20 25  1  0  0  0  0
 21 22  1  0  0  0  0
 21 23  1  0  0  0  0
 22 53  1  0  0  0  0
 22 54  1  0  0  0  0
 22 55  1  0  0  0  0
 23 24  2  0  0  0  0
 24 56  1  0  0  0  0
 24 25  1  0  0  0  0
 26 57  1  0  0  0  0
 26 27  1  0  0  0  0
 27 58  1  0  0  0  0
 29 28  1  0  0  0  0
 28 59  1  0  0  0  0
 28 60  1  0  0  0  0
 29 31  1  0  0  0  0
 29 61  1  0  0  0  0
 29 30  1  0  0  0  0
 30 62  1  0  0  0  0
 31 63  1  0  0  0  0
 31 64  1  0  0  0  0
M  ZZC   1 c1
M  ZZC   2 n1
M  ZZC   3 c2
M  ZZC   4 c3
M  ZZC   5 c4
M  ZZC   6 c5
M  ZZC   7 c6
M  ZZC   8 c7
M  ZZC   9 o1
M  ZZC  10 n2
M  ZZC  11 c8
M  ZZC  12 c9
M  ZZC  13 o2
M  ZZC  14 n3
M  ZZC  15 c10
M  ZZC  16 c11
M  ZZC  17 c12
M  ZZC  18 c13
M  ZZC  19 c14
M  ZZC  20 c15
M  ZZC  21 c16
M  ZZC  22 c17
M  ZZC  23 n4
M  ZZC  24 c18
M  ZZC  25 s1
M  ZZC  26 c19
M  ZZC  27 c20
M  ZZC  28 c21
M  ZZC  29 c22
M  ZZC  30 o3
M  ZZC  31 c23
M  ZZC  32 h11
M  ZZC  33 h12
M  ZZC  34 h13
M  ZZC  35 h01
M  ZZC  36 h02
M  ZZC  37 h21
M  ZZC  38 h41
M  ZZC  39 h42
M  ZZC  40 h43
M  ZZC  41 h51
M  ZZC  42 h52
M  ZZC  43 h53
M  ZZC  44 h61
M  ZZC  45 h62
M  ZZC  46 h63
M  ZZC  47 h81
M  ZZC  48 h31
M  ZZC  49 h101
M  ZZC  50 h102
M  ZZC  51 h121
M  ZZC  52 h131
M  ZZC  53 h171
M  ZZC  54 h172
M  ZZC  55 h173
M  ZZC  56 h181
M  ZZC  57 h191
M  ZZC  58 h201
M  ZZC  59 h211
M  ZZC  60 h212
M  ZZC  61 h221
M  ZZC  62 h03
M  ZZC  63 h231
M  ZZC  64 h232
M  ZZM   1 1
M  ZZI   1 111
M  ZZM   2 34
M  ZZI   2 231
M  ZZM   3 1
M  ZZI   3 113
M  ZZM   4 1
M  ZZI   4 110
M  ZZM   5 1
M  ZZI   5 111
M  ZZM   6 1
M  ZZI   6 111
M  ZZM   7 1
M  ZZI   7 111
M  ZZM   8 3
M  ZZI   8 121
M  ZZM   9 7
M  ZZI   9 81
M  ZZM  10 10
M  ZZI  10 192
M  ZZM  11 1
M  ZZI  11 113
M  ZZM  12 3
M  ZZI  12 121
M  ZZM  13 7
M  ZZI  13 81
M  ZZM  14 10
M  ZZI  14 211
M  ZZM  15 1
M  ZZI  15 112
M  ZZM  16 37
M  ZZI  16 124
M  ZZM  17 37
M  ZZI  17 125
M  ZZM  18 37
M  ZZI  18 125
M  ZZM  19 37
M  ZZI  19 124
M  ZZM  20 63
M  ZZI  20 104
M  ZZM  21 64
M  ZZI  21 105
M  ZZM  22 1
M  ZZI  22 111
M  ZZM  23 66
M  ZZI  23 222
M  ZZM  24 63
M  ZZI  24 104
M  ZZM  25 44
M  ZZI  25 248
M  ZZM  26 37
M  ZZI  26 125
M  ZZM  27 37
M  ZZI  27 125
M  ZZM  28 1
M  ZZI  28 112
M  ZZM  29 1
M  ZZI  29 113
M  ZZM  30 6
M  ZZI  30 60
M  ZZM  31 1
M  ZZI  31 112
M  ZZM  32 5
M  ZZI  32 1
M  ZZM  33 5
M  ZZI  33 1
M  ZZM  34 5
M  ZZI  34 1
M  ZZM  35 36
M  ZZI  35 17
M  ZZM  36 36
M  ZZI  36 17
M  ZZM  37 5
M  ZZI  37 1
M  ZZM  38 5
M  ZZI  38 1
M  ZZM  39 5
M  ZZI  39 1
M  ZZM  40 5
M  ZZI  40 1
M  ZZM  41 5
M  ZZI  41 1
M  ZZM  42 5
M  ZZI  42 1
M  ZZM  43 5
M  ZZI  43 1
M  ZZM  44 5
M  ZZI  44 1
M  ZZM  45 5
M  ZZI  45 1
M  ZZM  46 5
M  ZZI  46 1
M  ZZM  47 5
M  ZZI  47 1
M  ZZM  48 28
M  ZZI  48 11
M  ZZM  49 5
M  ZZI  49 1
M  ZZM  50 5
M  ZZI  50 1
M  ZZM  51 5
M  ZZI  51 1
M  ZZM  52 5
M  ZZI  52 1
M  ZZM  53 5
M  ZZI  53 1
M  ZZM  54 5
M  ZZI  54 1
M  ZZM  55 5
M  ZZI  55 1
M  ZZM  56 5
M  ZZI  56 1
M  ZZM  57 5
M  ZZI  57 1
M  ZZM  58 5
M  ZZI  58 1
M  ZZM  59 5
M  ZZI  59 1
M  ZZM  60 5
M  ZZI  60 1
M  ZZM  61 5
M  ZZI  61 1
M  ZZM  62 21
M  ZZI  62 20
M  ZZM  63 5
M  ZZI  63 1
M  ZZM  64 5
M  ZZI  64 1
M  CHG  1   2   1
M  END
> <IX>
1

> <NAME>
VHL_6VS3_11.pdb

> <Score>
-8.019946

> <Natom>
64

> <Nflex>
8

> <Hbond>
-6.306149

> <Hphob>
-6.23835

> <VwInt>
-27.690435

> <Dsolv>
19.82462

> <SolEl>
18.517483

> <Eintl>
13.191231

> <RecConf>
ND

> <projPath>
VHL_maps/

> <NAME_>
VHL_6VS3_11.pdb

$$$$
