VHL_4IM0_11.pdb
  MOLSOFT 04032206373D

 65 67  0  0  1  0  0  0  0  0999 V2000
   18.0948   -7.0477   -5.1300 C   0  0  0  0  0  0  0  0  0  0  0  0
   16.9460   -6.0803   -5.0832 C   0  0  0  0  0  0  0  0  0  0  0  0
   15.8727   -6.3594   -5.5897 O   0  0  0  0  0  0  0  0  0  0  0  0
   17.2284   -4.9171   -4.3959 N   0  0  0  0  0  0  0  0  0  0  0  0
   16.2834   -3.8035   -4.2345 C   0  0  1  0  0  0  0  0  0  0  0  0
   15.8675   -3.5756   -2.7489 C   0  0  0  0  0  0  0  0  0  0  0  0
   15.3488   -4.8978   -2.1689 C   0  0  0  0  0  0  0  0  0  0  0  0
   17.0340   -3.0743   -1.8851 C   0  0  0  0  0  0  0  0  0  0  0  0
   14.7262   -2.5550   -2.6241 C   0  0  0  0  0  0  0  0  0  0  0  0
   16.9646   -2.5956   -4.9029 C   0  0  0  0  0  0  0  0  0  0  0  0
   18.1651   -2.3950   -4.7756 O   0  0  0  0  0  0  0  0  0  0  0  0
   16.1729   -1.7059   -5.6260 N   0  0  0  0  0  0  0  0  0  0  0  0
   16.7731   -0.5853   -6.3384 C   0  0  2  0  0  0  0  0  0  0  0  0
   17.3121    0.4914   -5.3995 C   0  0  0  0  0  0  0  0  0  0  0  0
   16.8578    0.6867   -4.2800 O   0  0  0  0  0  0  0  0  0  0  0  0
   18.2830    1.2793   -5.9937 N   0  0  0  0  0  0  0  0  0  0  0  0
   18.6539    2.5737   -5.4567 C   0  0  0  0  0  0  0  0  0  0  0  0
   17.6635    3.5940   -5.9507 C   0  0  0  0  0  0  0  0  0  0  0  0
   16.4177    3.6904   -5.3400 C   0  0  0  0  0  0  0  0  0  0  0  0
   15.3959    4.3933   -5.9392 C   0  0  0  0  0  0  0  0  0  0  0  0
   15.6109    5.0475   -7.1420 C   0  0  0  0  0  0  0  0  0  0  0  0
   14.4750    5.6073   -7.8411 C   0  0  0  0  0  0  0  0  0  0  0  0
   13.4502    4.9507   -8.5069 C   0  0  0  0  0  0  0  0  0  0  0  0
   13.3323    3.4917   -8.7434 C   0  0  0  0  0  0  0  0  0  0  0  0
   12.4400    5.7693   -8.9565 N   0  0  0  0  0  0  0  0  0  0  0  0
   12.7470    7.0195   -8.6883 C   0  0  0  0  0  0  0  0  0  0  0  0
   14.2200    7.3004   -7.8794 S   0  0  0  0  0  0  0  0  0  0  0  0
   16.8886    5.0746   -7.6870 C   0  0  0  0  0  0  0  0  0  0  0  0
   17.9057    4.3363   -7.1035 C   0  0  0  0  0  0  0  0  0  0  0  0
   15.6486   -0.0236   -7.2121 C   0  0  0  0  0  0  0  0  0  0  0  0
   14.3907   -0.4685   -6.4855 C   0  0  1  0  0  0  0  0  0  0  0  0
   13.2580   -0.5401   -7.3467 O   0  0  0  0  0  0  0  0  0  0  0  0
   14.7866   -1.8453   -6.0010 C   0  0  0  0  0  0  0  0  0  0  0  0
   19.0500   -6.5197   -5.2099 H   0  0  0  0  0  0  0  0  0  0  0  0
   17.9859   -7.6983   -6.0025 H   0  0  0  0  0  0  0  0  0  0  0  0
   18.0801   -7.6567   -4.2235 H   0  0  0  0  0  0  0  0  0  0  0  0
   18.1784   -4.7789   -4.0690 H   0  0  0  0  0  0  0  0  0  0  0  0
   15.3881   -4.0612   -4.7925 H   0  0  0  0  0  0  0  0  0  0  0  0
   15.0139   -4.7724   -1.1360 H   0  0  0  0  0  0  0  0  0  0  0  0
   16.1188   -5.6716   -2.1704 H   0  0  0  0  0  0  0  0  0  0  0  0
   14.5003   -5.2822   -2.7437 H   0  0  0  0  0  0  0  0  0  0  0  0
   16.7469   -2.9986   -0.8313 H   0  0  0  0  0  0  0  0  0  0  0  0
   17.3755   -2.0821   -2.1958 H   0  0  0  0  0  0  0  0  0  0  0  0
   17.8891   -3.7459   -1.9345 H   0  0  0  0  0  0  0  0  0  0  0  0
   15.0190   -1.5786   -3.0240 H   0  0  0  0  0  0  0  0  0  0  0  0
   14.4464   -2.3941   -1.5787 H   0  0  0  0  0  0  0  0  0  0  0  0
   13.8341   -2.8659   -3.1751 H   0  0  0  0  0  0  0  0  0  0  0  0
   17.5908   -0.9548   -6.9557 H   0  0  0  0  0  0  0  0  0  0  0  0
   18.6591    1.0094   -6.8981 H   0  0  0  0  0  0  0  0  0  0  0  0
   18.6648    2.5370   -4.3616 H   0  0  0  0  0  0  0  0  0  0  0  0
   19.6682    2.8055   -5.7978 H   0  0  0  0  0  0  0  0  0  0  0  0
   16.2067    3.1451   -4.4248 H   0  0  0  0  0  0  0  0  0  0  0  0
   14.4093    4.3854   -5.4833 H   0  0  0  0  0  0  0  0  0  0  0  0
   12.4470    3.2674   -9.3450 H   0  0  0  0  0  0  0  0  0  0  0  0
   13.2348    2.9435   -7.8025 H   0  0  0  0  0  0  0  0  0  0  0  0
   14.2111    3.1057   -9.2667 H   0  0  0  0  0  0  0  0  0  0  0  0
   12.1067    7.8423   -8.9512 H   0  0  0  0  0  0  0  0  0  0  0  0
   17.0837    5.6221   -8.6049 H   0  0  0  0  0  0  0  0  0  0  0  0
   18.8764    4.2981   -7.5891 H   0  0  0  0  0  0  0  0  0  0  0  0
   15.6812    1.0623   -7.3495 H   0  0  0  0  0  0  0  0  0  0  0  0
   15.6811   -0.4678   -8.2144 H   0  0  0  0  0  0  0  0  0  0  0  0
   14.1626    0.1917   -5.6401 H   0  0  0  0  0  0  0  0  0  0  0  0
   12.9832    0.3708   -7.5542 H   0  0  0  0  0  0  0  0  0  0  0  0
   14.7540   -2.5655   -6.8232 H   0  0  0  0  0  0  0  0  0  0  0  0
   14.1494   -2.2161   -5.1990 H   0  0  0  0  0  0  0  0  0  0  0  0
  1 34  1  0  0  0  0
  1 35  1  0  0  0  0
  1 36  1  0  0  0  0
  1  2  1  0  0  0  0
  2  3  2  0  0  0  0
  2  4  1  0  0  0  0
  4 37  1  0  0  0  0
  5  4  1  0  0  0  0
  5 38  1  0  0  0  0
  5  6  1  0  0  0  0
  5 10  1  0  0  0  0
  6  7  1  0  0  0  0
  6  8  1  0  0  0  0
  6  9  1  0  0  0  0
  7 39  1  0  0  0  0
  7 40  1  0  0  0  0
  7 41  1  0  0  0  0
  8 42  1  0  0  0  0
  8 43  1  0  0  0  0
  8 44  1  0  0  0  0
  9 45  1  0  0  0  0
  9 46  1  0  0  0  0
  9 47  1  0  0  0  0
 10 11  2  0  0  0  0
 10 12  1  0  0  0  0
 12 33  1  0  0  0  0
 13 12  1  0  0  0  0
 13 30  1  0  0  0  0
 13 48  1  0  0  0  0
 13 14  1  0  0  0  0
 14 15  2  0  0  0  0
 14 16  1  0  0  0  0
 16 49  1  0  0  0  0
 16 17  1  0  0  0  0
 17 50  1  0  0  0  0
 17 51  1  0  0  0  0
 17 18  1  0  0  0  0
 18 19  1  0  0  0  0
 18 29  2  0  0  0  0
 19 52  1  0  0  0  0
 19 20  2  0  0  0  0
 20 53  1  0  0  0  0
 20 21  1  0  0  0  0
 21 28  2  0  0  0  0
 21 22  1  0  0  0  0
 22 23  2  0  0  0  0
 22 27  1  0  0  0  0
 23 24  1  0  0  0  0
 23 25  1  0  0  0  0
 24 54  1  0  0  0  0
 24 55  1  0  0  0  0
 24 56  1  0  0  0  0
 25 26  2  0  0  0  0
 26 57  1  0  0  0  0
 26 27  1  0  0  0  0
 28 58  1  0  0  0  0
 28 29  1  0  0  0  0
 29 59  1  0  0  0  0
 31 30  1  0  0  0  0
 30 60  1  0  0  0  0
 30 61  1  0  0  0  0
 31 33  1  0  0  0  0
 31 62  1  0  0  0  0
 31 32  1  0  0  0  0
 32 63  1  0  0  0  0
 33 64  1  0  0  0  0
 33 65  1  0  0  0  0
M  ZZC   1 c1
M  ZZC   2 c2
M  ZZC   3 o1
M  ZZC   4 n1
M  ZZC   5 c3
M  ZZC   6 c4
M  ZZC   7 c5
M  ZZC   8 c6
M  ZZC   9 c7
M  ZZC  10 c8
M  ZZC  11 o2
M  ZZC  12 n2
M  ZZC  13 c9
M  ZZC  14 c10
M  ZZC  15 o3
M  ZZC  16 n3
M  ZZC  17 c11
M  ZZC  18 c12
M  ZZC  19 c13
M  ZZC  20 c14
M  ZZC  21 c15
M  ZZC  22 c16
M  ZZC  23 c17
M  ZZC  24 c18
M  ZZC  25 n4
M  ZZC  26 c19
M  ZZC  27 s1
M  ZZC  28 c20
M  ZZC  29 c21
M  ZZC  30 c22
M  ZZC  31 c23
M  ZZC  32 o4
M  ZZC  33 c24
M  ZZC  34 h11
M  ZZC  35 h12
M  ZZC  36 h13
M  ZZC  37 h01
M  ZZC  38 h31
M  ZZC  39 h51
M  ZZC  40 h52
M  ZZC  41 h53
M  ZZC  42 h61
M  ZZC  43 h62
M  ZZC  44 h63
M  ZZC  45 h71
M  ZZC  46 h72
M  ZZC  47 h73
M  ZZC  48 h91
M  ZZC  49 h02
M  ZZC  50 h111
M  ZZC  51 h112
M  ZZC  52 h131
M  ZZC  53 h141
M  ZZC  54 h181
M  ZZC  55 h182
M  ZZC  56 h183
M  ZZC  57 h191
M  ZZC  58 h201
M  ZZC  59 h211
M  ZZC  60 h221
M  ZZC  61 h222
M  ZZC  62 h231
M  ZZC  63 h41
M  ZZC  64 h241
M  ZZC  65 h242
M  ZZM   1 1
M  ZZI   1 111
M  ZZM   2 3
M  ZZI   2 121
M  ZZM   3 7
M  ZZI   3 81
M  ZZM   4 10
M  ZZI   4 211
M  ZZM   5 1
M  ZZI   5 113
M  ZZM   6 1
M  ZZI   6 110
M  ZZM   7 1
M  ZZI   7 111
M  ZZM   8 1
M  ZZI   8 111
M  ZZM   9 1
M  ZZI   9 111
M  ZZM  10 3
M  ZZI  10 121
M  ZZM  11 7
M  ZZI  11 81
M  ZZM  12 10
M  ZZI  12 192
M  ZZM  13 1
M  ZZI  13 113
M  ZZM  14 3
M  ZZI  14 121
M  ZZM  15 7
M  ZZI  15 81
M  ZZM  16 10
M  ZZI  16 211
M  ZZM  17 1
M  ZZI  17 112
M  ZZM  18 37
M  ZZI  18 124
M  ZZM  19 37
M  ZZI  19 125
M  ZZM  20 37
M  ZZI  20 125
M  ZZM  21 37
M  ZZI  21 124
M  ZZM  22 63
M  ZZI  22 104
M  ZZM  23 64
M  ZZI  23 105
M  ZZM  24 1
M  ZZI  24 111
M  ZZM  25 66
M  ZZI  25 222
M  ZZM  26 63
M  ZZI  26 104
M  ZZM  27 44
M  ZZI  27 248
M  ZZM  28 37
M  ZZI  28 125
M  ZZM  29 37
M  ZZI  29 125
M  ZZM  30 1
M  ZZI  30 112
M  ZZM  31 1
M  ZZI  31 113
M  ZZM  32 6
M  ZZI  32 60
M  ZZM  33 1
M  ZZI  33 112
M  ZZM  34 5
M  ZZI  34 1
M  ZZM  35 5
M  ZZI  35 1
M  ZZM  36 5
M  ZZI  36 1
M  ZZM  37 28
M  ZZI  37 11
M  ZZM  38 5
M  ZZI  38 1
M  ZZM  39 5
M  ZZI  39 1
M  ZZM  40 5
M  ZZI  40 1
M  ZZM  41 5
M  ZZI  41 1
M  ZZM  42 5
M  ZZI  42 1
M  ZZM  43 5
M  ZZI  43 1
M  ZZM  44 5
M  ZZI  44 1
M  ZZM  45 5
M  ZZI  45 1
M  ZZM  46 5
M  ZZI  46 1
M  ZZM  47 5
M  ZZI  47 1
M  ZZM  48 5
M  ZZI  48 1
M  ZZM  49 28
M  ZZI  49 11
M  ZZM  50 5
M  ZZI  50 1
M  ZZM  51 5
M  ZZI  51 1
M  ZZM  52 5
M  ZZI  52 1
M  ZZM  53 5
M  ZZI  53 1
M  ZZM  54 5
M  ZZI  54 1
M  ZZM  55 5
M  ZZI  55 1
M  ZZM  56 5
M  ZZI  56 1
M  ZZM  57 5
M  ZZI  57 1
M  ZZM  58 5
M  ZZI  58 1
M  ZZM  59 5
M  ZZI  59 1
M  ZZM  60 5
M  ZZI  60 1
M  ZZM  61 5
M  ZZI  61 1
M  ZZM  62 5
M  ZZI  62 1
M  ZZM  63 21
M  ZZI  63 20
M  ZZM  64 5
M  ZZI  64 1
M  ZZM  65 5
M  ZZI  65 1
M  END
> <IX>
1

> <NAME>
VHL_4IM0_11.pdb

> <Score>
-7.363359

> <Natom>
65

> <Nflex>
8

> <Hbond>
-6.031164

> <Hphob>
-6.878965

> <VwInt>
-28.105391

> <Dsolv>
21.574619

> <SolEl>
22.981131

> <Eintl>
7.435452

> <RecConf>
ND

> <projPath>
VHL_maps/

> <NAME_>
VHL_4IM0_11.pdb

$$$$
