VHL_3K6P_7.pdb
  MOLSOFT 04032206363D

 61 63  0  0  1  0  0  0  0  0999 V2000
   16.8854   -4.6274   -4.2586 N   0  3  0  0  0  0  0  0  0  0  0  0
   16.0256   -3.4161   -3.9468 C   0  0  1  0  0  0  0  0  0  0  0  0
   15.9304   -3.1738   -2.4078 C   0  0  0  0  0  0  0  0  0  0  0  0
   15.4782   -4.4624   -1.7082 C   0  0  0  0  0  0  0  0  0  0  0  0
   14.8865   -2.0975   -2.0798 C   0  0  0  0  0  0  0  0  0  0  0  0
   17.2678   -2.7317   -1.7979 C   0  0  0  0  0  0  0  0  0  0  0  0
   16.5473   -2.2222   -4.7707 C   0  0  0  0  0  0  0  0  0  0  0  0
   17.7526   -2.0280   -4.8688 O   0  0  0  0  0  0  0  0  0  0  0  0
   15.6080   -1.4547   -5.4626 N   0  0  0  0  0  0  0  0  0  0  0  0
   16.0104   -0.5633   -6.5414 C   0  0  2  0  0  0  0  0  0  0  0  0
   16.4117    0.8274   -6.0430 C   0  0  0  0  0  0  0  0  0  0  0  0
   15.8840    1.3653   -5.0791 O   0  0  0  0  0  0  0  0  0  0  0  0
   17.3711    1.4342   -6.8318 N   0  0  0  0  0  0  0  0  0  0  0  0
   17.8388    2.7848   -6.5661 C   0  0  0  0  0  0  0  0  0  0  0  0
   19.2522    3.0485   -7.0284 C   0  0  0  0  0  0  0  0  0  0  0  0
   19.6777    4.3485   -7.2942 C   0  0  0  0  0  0  0  0  0  0  0  0
   20.9899    4.6142   -7.6608 C   0  0  0  0  0  0  0  0  0  0  0  0
   21.9138    3.5826   -7.7699 C   0  0  0  0  0  0  0  0  0  0  0  0
   23.3007    3.8307   -8.1297 C   0  0  0  0  0  0  0  0  0  0  0  0
   24.3736    4.2380   -7.3498 C   0  0  0  0  0  0  0  0  0  0  0  0
   24.3476    4.5671   -5.9067 C   0  0  0  0  0  0  0  0  0  0  0  0
   25.5826    4.3107   -8.0123 N   0  0  0  0  0  0  0  0  0  0  0  0
   25.4155    3.9850   -9.2742 C   0  0  0  0  0  0  0  0  0  0  0  0
   23.8255    3.5836   -9.7468 S   0  0  0  0  0  0  0  0  0  0  0  0
   21.4907    2.2902   -7.5037 C   0  0  0  0  0  0  0  0  0  0  0  0
   20.1875    2.0270   -7.1352 C   0  0  0  0  0  0  0  0  0  0  0  0
   14.7719   -0.4867   -7.4191 C   0  0  0  0  0  0  0  0  0  0  0  0
   13.6162   -0.5885   -6.4330 C   0  0  1  0  0  0  0  0  0  0  0  0
   12.4796   -1.2213   -7.0163 O   0  0  0  0  0  0  0  0  0  0  0  0
   14.1610   -1.4637   -5.3169 C   0  0  0  0  0  0  0  0  0  0  0  0
   16.9379   -4.7832   -5.2742 H   0  0  0  0  0  0  0  0  0  0  0  0
   16.5248   -5.4998   -3.8486 H   0  0  0  0  0  0  0  0  0  0  0  0
   17.8622   -4.5092   -3.9506 H   0  0  0  0  0  0  0  0  0  0  0  0
   15.0413   -3.7096   -4.3161 H   0  0  0  0  0  0  0  0  0  0  0  0
   15.2343   -4.2810   -0.6573 H   0  0  0  0  0  0  0  0  0  0  0  0
   16.2579   -5.2256   -1.7294 H   0  0  0  0  0  0  0  0  0  0  0  0
   14.5879   -4.8870   -2.1820 H   0  0  0  0  0  0  0  0  0  0  0  0
   15.1681   -1.1257   -2.4986 H   0  0  0  0  0  0  0  0  0  0  0  0
   14.7821   -1.9582   -0.9992 H   0  0  0  0  0  0  0  0  0  0  0  0
   13.9051   -2.3436   -2.4954 H   0  0  0  0  0  0  0  0  0  0  0  0
   17.1932   -2.6224   -0.7111 H   0  0  0  0  0  0  0  0  0  0  0  0
   17.6015   -1.7685   -2.1954 H   0  0  0  0  0  0  0  0  0  0  0  0
   18.0550   -3.4586   -1.9906 H   0  0  0  0  0  0  0  0  0  0  0  0
   16.8525   -1.0043   -7.0862 H   0  0  0  0  0  0  0  0  0  0  0  0
   17.7707    0.9205   -7.6125 H   0  0  0  0  0  0  0  0  0  0  0  0
   17.1458    3.4556   -7.0856 H   0  0  0  0  0  0  0  0  0  0  0  0
   17.7649    2.9886   -5.4926 H   0  0  0  0  0  0  0  0  0  0  0  0
   18.9804    5.1770   -7.2091 H   0  0  0  0  0  0  0  0  0  0  0  0
   21.2886    5.6391   -7.8601 H   0  0  0  0  0  0  0  0  0  0  0  0
   25.3306    4.9001   -5.5612 H   0  0  0  0  0  0  0  0  0  0  0  0
   24.0681    3.6918   -5.3160 H   0  0  0  0  0  0  0  0  0  0  0  0
   23.6310    5.3675   -5.7014 H   0  0  0  0  0  0  0  0  0  0  0  0
   26.2324    3.9725   -9.9814 H   0  0  0  0  0  0  0  0  0  0  0  0
   22.1829    1.4612   -7.5840 H   0  0  0  0  0  0  0  0  0  0  0  0
   19.9102    0.9998   -6.9296 H   0  0  0  0  0  0  0  0  0  0  0  0
   14.7150    0.4231   -8.0261 H   0  0  0  0  0  0  0  0  0  0  0  0
   14.7539   -1.3390   -8.1068 H   0  0  0  0  0  0  0  0  0  0  0  0
   13.3204    0.3955   -6.0519 H   0  0  0  0  0  0  0  0  0  0  0  0
   12.1345   -0.6448   -7.7223 H   0  0  0  0  0  0  0  0  0  0  0  0
   13.7712   -2.4829   -5.3523 H   0  0  0  0  0  0  0  0  0  0  0  0
   13.8954   -1.0374   -4.3481 H   0  0  0  0  0  0  0  0  0  0  0  0
  1 31  1  0  0  0  0
  1 32  1  0  0  0  0
  1 33  1  0  0  0  0
  2  1  1  0  0  0  0
  2 34  1  0  0  0  0
  2  3  1  0  0  0  0
  2  7  1  0  0  0  0
  3  4  1  0  0  0  0
  3  5  1  0  0  0  0
  3  6  1  0  0  0  0
  4 35  1  0  0  0  0
  4 36  1  0  0  0  0
  4 37  1  0  0  0  0
  5 38  1  0  0  0  0
  5 39  1  0  0  0  0
  5 40  1  0  0  0  0
  6 41  1  0  0  0  0
  6 42  1  0  0  0  0
  6 43  1  0  0  0  0
  7  8  2  0  0  0  0
  7  9  1  0  0  0  0
  9 30  1  0  0  0  0
 10  9  1  0  0  0  0
 10 27  1  0  0  0  0
 10 44  1  0  0  0  0
 10 11  1  0  0  0  0
 11 12  2  0  0  0  0
 11 13  1  0  0  0  0
 13 45  1  0  0  0  0
 13 14  1  0  0  0  0
 14 46  1  0  0  0  0
 14 47  1  0  0  0  0
 14 15  1  0  0  0  0
 15 16  1  0  0  0  0
 15 26  2  0  0  0  0
 16 48  1  0  0  0  0
 16 17  2  0  0  0  0
 17 49  1  0  0  0  0
 17 18  1  0  0  0  0
 18 25  2  0  0  0  0
 18 19  1  0  0  0  0
 19 20  2  0  0  0  0
 19 24  1  0  0  0  0
 20 21  1  0  0  0  0
 20 22  1  0  0  0  0
 21 50  1  0  0  0  0
 21 51  1  0  0  0  0
 21 52  1  0  0  0  0
 22 23  2  0  0  0  0
 23 53  1  0  0  0  0
 23 24  1  0  0  0  0
 25 54  1  0  0  0  0
 25 26  1  0  0  0  0
 26 55  1  0  0  0  0
 28 27  1  0  0  0  0
 27 56  1  0  0  0  0
 27 57  1  0  0  0  0
 28 30  1  0  0  0  0
 28 58  1  0  0  0  0
 28 29  1  0  0  0  0
 29 59  1  0  0  0  0
 30 60  1  0  0  0  0
 30 61  1  0  0  0  0
M  ZZC   1 n1
M  ZZC   2 c1
M  ZZC   3 c2
M  ZZC   4 c3
M  ZZC   5 c4
M  ZZC   6 c5
M  ZZC   7 c6
M  ZZC   8 o1
M  ZZC   9 n2
M  ZZC  10 c7
M  ZZC  11 c8
M  ZZC  12 o2
M  ZZC  13 n3
M  ZZC  14 c9
M  ZZC  15 c10
M  ZZC  16 c11
M  ZZC  17 c12
M  ZZC  18 c13
M  ZZC  19 c14
M  ZZC  20 c15
M  ZZC  21 c16
M  ZZC  22 n4
M  ZZC  23 c17
M  ZZC  24 s1
M  ZZC  25 c18
M  ZZC  26 c19
M  ZZC  27 c20
M  ZZC  28 c21
M  ZZC  29 o3
M  ZZC  30 c22
M  ZZC  31 h11
M  ZZC  32 h12
M  ZZC  33 h13
M  ZZC  34 h01
M  ZZC  35 h31
M  ZZC  36 h32
M  ZZC  37 h33
M  ZZC  38 h41
M  ZZC  39 h42
M  ZZC  40 h43
M  ZZC  41 h51
M  ZZC  42 h52
M  ZZC  43 h53
M  ZZC  44 h71
M  ZZC  45 h02
M  ZZC  46 h91
M  ZZC  47 h92
M  ZZC  48 h111
M  ZZC  49 h121
M  ZZC  50 h161
M  ZZC  51 h162
M  ZZC  52 h163
M  ZZC  53 h171
M  ZZC  54 h181
M  ZZC  55 h191
M  ZZC  56 h201
M  ZZC  57 h202
M  ZZC  58 h211
M  ZZC  59 h03
M  ZZC  60 h221
M  ZZC  61 h222
M  ZZM   1 34
M  ZZI   1 231
M  ZZM   2 1
M  ZZI   2 113
M  ZZM   3 1
M  ZZI   3 110
M  ZZM   4 1
M  ZZI   4 111
M  ZZM   5 1
M  ZZI   5 111
M  ZZM   6 1
M  ZZI   6 111
M  ZZM   7 3
M  ZZI   7 121
M  ZZM   8 7
M  ZZI   8 81
M  ZZM   9 10
M  ZZI   9 192
M  ZZM  10 1
M  ZZI  10 113
M  ZZM  11 3
M  ZZI  11 121
M  ZZM  12 7
M  ZZI  12 81
M  ZZM  13 10
M  ZZI  13 211
M  ZZM  14 1
M  ZZI  14 112
M  ZZM  15 37
M  ZZI  15 124
M  ZZM  16 37
M  ZZI  16 125
M  ZZM  17 37
M  ZZI  17 125
M  ZZM  18 37
M  ZZI  18 124
M  ZZM  19 63
M  ZZI  19 104
M  ZZM  20 64
M  ZZI  20 105
M  ZZM  21 1
M  ZZI  21 111
M  ZZM  22 66
M  ZZI  22 222
M  ZZM  23 63
M  ZZI  23 104
M  ZZM  24 44
M  ZZI  24 248
M  ZZM  25 37
M  ZZI  25 125
M  ZZM  26 37
M  ZZI  26 125
M  ZZM  27 1
M  ZZI  27 112
M  ZZM  28 1
M  ZZI  28 113
M  ZZM  29 6
M  ZZI  29 60
M  ZZM  30 1
M  ZZI  30 112
M  ZZM  31 36
M  ZZI  31 17
M  ZZM  32 36
M  ZZI  32 17
M  ZZM  33 36
M  ZZI  33 17
M  ZZM  34 5
M  ZZI  34 1
M  ZZM  35 5
M  ZZI  35 1
M  ZZM  36 5
M  ZZI  36 1
M  ZZM  37 5
M  ZZI  37 1
M  ZZM  38 5
M  ZZI  38 1
M  ZZM  39 5
M  ZZI  39 1
M  ZZM  40 5
M  ZZI  40 1
M  ZZM  41 5
M  ZZI  41 1
M  ZZM  42 5
M  ZZI  42 1
M  ZZM  43 5
M  ZZI  43 1
M  ZZM  44 5
M  ZZI  44 1
M  ZZM  45 28
M  ZZI  45 11
M  ZZM  46 5
M  ZZI  46 1
M  ZZM  47 5
M  ZZI  47 1
M  ZZM  48 5
M  ZZI  48 1
M  ZZM  49 5
M  ZZI  49 1
M  ZZM  50 5
M  ZZI  50 1
M  ZZM  51 5
M  ZZI  51 1
M  ZZM  52 5
M  ZZI  52 1
M  ZZM  53 5
M  ZZI  53 1
M  ZZM  54 5
M  ZZI  54 1
M  ZZM  55 5
M  ZZI  55 1
M  ZZM  56 5
M  ZZI  56 1
M  ZZM  57 5
M  ZZI  57 1
M  ZZM  58 5
M  ZZI  58 1
M  ZZM  59 21
M  ZZI  59 20
M  ZZM  60 5
M  ZZI  60 1
M  ZZM  61 5
M  ZZI  61 1
M  CHG  1   1   1
M  END
> <IX>
1

> <NAME>
VHL_3K6P_7.pdb

> <Score>
-8.566925

> <Natom>
61

> <Nflex>
7

> <Hbond>
-4.740007

> <Hphob>
-5.557449

> <VwInt>
-26.388478

> <Dsolv>
16.558852

> <SolEl>
19.067843

> <Eintl>
7.222244

> <RecConf>
ND

> <projPath>
VHL_maps/

> <NAME_>
VHL_3K6P_7.pdb

$$$$
