VHL_5T8E_44.pdb
  MOLSOFT 04032206423D

 68 70  0  0  1  0  0  0  0  0999 V2000
   19.0700   -6.1959   -5.8459 C   0  0  0  0  0  0  0  0  0  0  0  0
   17.7283   -5.5460   -5.6352 C   0  0  0  0  0  0  0  0  0  0  0  0
   16.6971   -6.1435   -5.9031 O   0  0  0  0  0  0  0  0  0  0  0  0
   17.8029   -4.2552   -5.1403 N   0  0  0  0  0  0  0  0  0  0  0  0
   16.6511   -3.3675   -4.9593 C   0  0  1  0  0  0  0  0  0  0  0  0
   15.9941   -3.4675   -3.5412 C   0  0  0  0  0  0  0  0  0  0  0  0
   15.7608   -4.9280   -3.1230 C   0  0  0  0  0  0  0  0  0  0  0  0
   16.8611   -2.8093   -2.4562 C   0  0  0  0  0  0  0  0  0  0  0  0
   14.6179   -2.7870   -3.5479 C   0  0  0  0  0  0  0  0  0  0  0  0
   17.1795   -1.9522   -5.2875 C   0  0  0  0  0  0  0  0  0  0  0  0
   18.2870   -1.6025   -4.9051 O   0  0  0  0  0  0  0  0  0  0  0  0
   16.3704   -1.0598   -5.9943 N   0  0  0  0  0  0  0  0  0  0  0  0
   16.8515    0.2964   -6.2853 C   0  0  2  0  0  0  0  0  0  0  0  0
   16.7794    1.2708   -5.1085 C   0  0  0  0  0  0  0  0  0  0  0  0
   17.4794    2.2727   -5.0749 O   0  0  0  0  0  0  0  0  0  0  0  0
   15.7495    1.0301   -4.2186 N   0  0  0  0  0  0  0  0  0  0  0  0
   15.3945    1.9578   -3.1564 C   0  0  1  0  0  0  0  0  0  0  0  0
   14.2499    2.8655   -3.6060 C   0  0  0  0  0  0  0  0  0  0  0  0
   15.0767    1.2212   -1.8714 C   0  0  0  0  0  0  0  0  0  0  0  0
   13.9261    0.4475   -1.7152 C   0  0  0  0  0  0  0  0  0  0  0  0
   13.6674   -0.2140   -0.5259 C   0  0  0  0  0  0  0  0  0  0  0  0
   14.5510   -0.1143    0.5412 C   0  0  0  0  0  0  0  0  0  0  0  0
   14.2891   -0.8093    1.7875 C   0  0  0  0  0  0  0  0  0  0  0  0
   14.5469   -2.1207    2.1521 C   0  0  0  0  0  0  0  0  0  0  0  0
   15.2316   -3.1412    1.3305 C   0  0  0  0  0  0  0  0  0  0  0  0
   14.1171   -2.4718    3.4167 N   0  0  0  0  0  0  0  0  0  0  0  0
   13.5841   -1.4235    4.0039 C   0  0  0  0  0  0  0  0  0  0  0  0
   13.5723    0.0280    3.1025 S   0  0  0  0  0  0  0  0  0  0  0  0
   15.7034    0.6436    0.3900 C   0  0  0  0  0  0  0  0  0  0  0  0
   15.9630    1.2980   -0.8004 C   0  0  0  0  0  0  0  0  0  0  0  0
   15.9408    0.8120   -7.3942 C   0  0  0  0  0  0  0  0  0  0  0  0
   15.3576   -0.4414   -8.0088 C   0  0  1  0  0  0  0  0  0  0  0  0
   16.2347   -0.9671   -9.0156 O   0  0  0  0  0  0  0  0  0  0  0  0
   15.2482   -1.4077   -6.8425 C   0  0  0  0  0  0  0  0  0  0  0  0
   19.8897   -5.4953   -5.6729 H   0  0  0  0  0  0  0  0  0  0  0  0
   19.1395   -6.5493   -6.8779 H   0  0  0  0  0  0  0  0  0  0  0  0
   19.1711   -7.0464   -5.1668 H   0  0  0  0  0  0  0  0  0  0  0  0
   18.7179   -3.8614   -4.9473 H   0  0  0  0  0  0  0  0  0  0  0  0
   15.9340   -3.6682   -5.7157 H   0  0  0  0  0  0  0  0  0  0  0  0
   15.2359   -4.9930   -2.1642 H   0  0  0  0  0  0  0  0  0  0  0  0
   16.6972   -5.4801   -3.0063 H   0  0  0  0  0  0  0  0  0  0  0  0
   15.1469   -5.4562   -3.8546 H   0  0  0  0  0  0  0  0  0  0  0  0
   16.4321   -2.9576   -1.4613 H   0  0  0  0  0  0  0  0  0  0  0  0
   16.9535   -1.7288   -2.6002 H   0  0  0  0  0  0  0  0  0  0  0  0
   17.8693   -3.2314   -2.4380 H   0  0  0  0  0  0  0  0  0  0  0  0
   14.6986   -1.7188   -3.7730 H   0  0  0  0  0  0  0  0  0  0  0  0
   14.1213   -2.8764   -2.5775 H   0  0  0  0  0  0  0  0  0  0  0  0
   13.9530   -3.2183   -4.2949 H   0  0  0  0  0  0  0  0  0  0  0  0
   17.8940    0.2355   -6.6155 H   0  0  0  0  0  0  0  0  0  0  0  0
   15.1938    0.1936   -4.3414 H   0  0  0  0  0  0  0  0  0  0  0  0
   16.2597    2.6058   -2.9788 H   0  0  0  0  0  0  0  0  0  0  0  0
   14.5415    3.4558   -4.4805 H   0  0  0  0  0  0  0  0  0  0  0  0
   13.9566    3.5603   -2.8122 H   0  0  0  0  0  0  0  0  0  0  0  0
   13.3635    2.2920   -3.8927 H   0  0  0  0  0  0  0  0  0  0  0  0
   13.2173    0.3464   -2.5306 H   0  0  0  0  0  0  0  0  0  0  0  0
   12.7638   -0.8105   -0.4351 H   0  0  0  0  0  0  0  0  0  0  0  0
   14.6821   -3.3345    0.4050 H   0  0  0  0  0  0  0  0  0  0  0  0
   15.3220   -4.0799    1.8800 H   0  0  0  0  0  0  0  0  0  0  0  0
   16.2416   -2.8124    1.0699 H   0  0  0  0  0  0  0  0  0  0  0  0
   13.1795   -1.4666    5.0047 H   0  0  0  0  0  0  0  0  0  0  0  0
   16.4162    0.7270    1.2053 H   0  0  0  0  0  0  0  0  0  0  0  0
   16.8772    1.8786   -0.8850 H   0  0  0  0  0  0  0  0  0  0  0  0
   15.1347    1.4346   -6.9890 H   0  0  0  0  0  0  0  0  0  0  0  0
   16.4964    1.4169   -8.1167 H   0  0  0  0  0  0  0  0  0  0  0  0
   14.3896   -0.2414   -8.4652 H   0  0  0  0  0  0  0  0  0  0  0  0
   17.1467   -0.9157   -8.6707 H   0  0  0  0  0  0  0  0  0  0  0  0
   15.2948   -2.4474   -7.1727 H   0  0  0  0  0  0  0  0  0  0  0  0
   14.3325   -1.2354   -6.2673 H   0  0  0  0  0  0  0  0  0  0  0  0
  1 35  1  0  0  0  0
  1 36  1  0  0  0  0
  1 37  1  0  0  0  0
  1  2  1  0  0  0  0
  2  3  2  0  0  0  0
  2  4  1  0  0  0  0
  4 38  1  0  0  0  0
  5  4  1  0  0  0  0
  5 39  1  0  0  0  0
  5  6  1  0  0  0  0
  5 10  1  0  0  0  0
  6  7  1  0  0  0  0
  6  8  1  0  0  0  0
  6  9  1  0  0  0  0
  7 40  1  0  0  0  0
  7 41  1  0  0  0  0
  7 42  1  0  0  0  0
  8 43  1  0  0  0  0
  8 44  1  0  0  0  0
  8 45  1  0  0  0  0
  9 46  1  0  0  0  0
  9 47  1  0  0  0  0
  9 48  1  0  0  0  0
 10 11  2  0  0  0  0
 10 12  1  0  0  0  0
 12 34  1  0  0  0  0
 13 12  1  0  0  0  0
 13 31  1  0  0  0  0
 13 49  1  0  0  0  0
 13 14  1  0  0  0  0
 14 15  2  0  0  0  0
 14 16  1  0  0  0  0
 16 50  1  0  0  0  0
 17 16  1  0  0  0  0
 17 51  1  0  0  0  0
 17 18  1  0  0  0  0
 17 19  1  0  0  0  0
 18 52  1  0  0  0  0
 18 53  1  0  0  0  0
 18 54  1  0  0  0  0
 19 20  1  0  0  0  0
 19 30  2  0  0  0  0
 20 55  1  0  0  0  0
 20 21  2  0  0  0  0
 21 56  1  0  0  0  0
 21 22  1  0  0  0  0
 22 29  2  0  0  0  0
 22 23  1  0  0  0  0
 23 24  2  0  0  0  0
 23 28  1  0  0  0  0
 24 25  1  0  0  0  0
 24 26  1  0  0  0  0
 25 57  1  0  0  0  0
 25 58  1  0  0  0  0
 25 59  1  0  0  0  0
 26 27  2  0  0  0  0
 27 60  1  0  0  0  0
 27 28  1  0  0  0  0
 29 61  1  0  0  0  0
 29 30  1  0  0  0  0
 30 62  1  0  0  0  0
 32 31  1  0  0  0  0
 31 63  1  0  0  0  0
 31 64  1  0  0  0  0
 32 34  1  0  0  0  0
 32 65  1  0  0  0  0
 32 33  1  0  0  0  0
 33 66  1  0  0  0  0
 34 67  1  0  0  0  0
 34 68  1  0  0  0  0
M  ZZC   1 c1
M  ZZC   2 c2
M  ZZC   3 o1
M  ZZC   4 n1
M  ZZC   5 c3
M  ZZC   6 c4
M  ZZC   7 c5
M  ZZC   8 c6
M  ZZC   9 c7
M  ZZC  10 c8
M  ZZC  11 o2
M  ZZC  12 n2
M  ZZC  13 c9
M  ZZC  14 c10
M  ZZC  15 o3
M  ZZC  16 n3
M  ZZC  17 c11
M  ZZC  18 c12
M  ZZC  19 c13
M  ZZC  20 c14
M  ZZC  21 c15
M  ZZC  22 c16
M  ZZC  23 c17
M  ZZC  24 c18
M  ZZC  25 c19
M  ZZC  26 n4
M  ZZC  27 c20
M  ZZC  28 s1
M  ZZC  29 c21
M  ZZC  30 c22
M  ZZC  31 c23
M  ZZC  32 c24
M  ZZC  33 o4
M  ZZC  34 c25
M  ZZC  35 h11
M  ZZC  36 h12
M  ZZC  37 h13
M  ZZC  38 h01
M  ZZC  39 h31
M  ZZC  40 h51
M  ZZC  41 h52
M  ZZC  42 h53
M  ZZC  43 h61
M  ZZC  44 h62
M  ZZC  45 h63
M  ZZC  46 h71
M  ZZC  47 h72
M  ZZC  48 h73
M  ZZC  49 h91
M  ZZC  50 h02
M  ZZC  51 h111
M  ZZC  52 h121
M  ZZC  53 h122
M  ZZC  54 h123
M  ZZC  55 h141
M  ZZC  56 h151
M  ZZC  57 h191
M  ZZC  58 h192
M  ZZC  59 h193
M  ZZC  60 h201
M  ZZC  61 h211
M  ZZC  62 h221
M  ZZC  63 h231
M  ZZC  64 h232
M  ZZC  65 h241
M  ZZC  66 h41
M  ZZC  67 h251
M  ZZC  68 h252
M  ZZM   1 1
M  ZZI   1 111
M  ZZM   2 3
M  ZZI   2 121
M  ZZM   3 7
M  ZZI   3 81
M  ZZM   4 10
M  ZZI   4 211
M  ZZM   5 1
M  ZZI   5 113
M  ZZM   6 1
M  ZZI   6 110
M  ZZM   7 1
M  ZZI   7 111
M  ZZM   8 1
M  ZZI   8 111
M  ZZM   9 1
M  ZZI   9 111
M  ZZM  10 3
M  ZZI  10 121
M  ZZM  11 7
M  ZZI  11 81
M  ZZM  12 10
M  ZZI  12 192
M  ZZM  13 1
M  ZZI  13 113
M  ZZM  14 3
M  ZZI  14 121
M  ZZM  15 7
M  ZZI  15 81
M  ZZM  16 10
M  ZZI  16 211
M  ZZM  17 1
M  ZZI  17 113
M  ZZM  18 1
M  ZZI  18 111
M  ZZM  19 37
M  ZZI  19 124
M  ZZM  20 37
M  ZZI  20 125
M  ZZM  21 37
M  ZZI  21 125
M  ZZM  22 37
M  ZZI  22 124
M  ZZM  23 63
M  ZZI  23 104
M  ZZM  24 64
M  ZZI  24 105
M  ZZM  25 1
M  ZZI  25 111
M  ZZM  26 66
M  ZZI  26 222
M  ZZM  27 63
M  ZZI  27 104
M  ZZM  28 44
M  ZZI  28 248
M  ZZM  29 37
M  ZZI  29 125
M  ZZM  30 37
M  ZZI  30 125
M  ZZM  31 1
M  ZZI  31 112
M  ZZM  32 1
M  ZZI  32 113
M  ZZM  33 6
M  ZZI  33 60
M  ZZM  34 1
M  ZZI  34 112
M  ZZM  35 5
M  ZZI  35 1
M  ZZM  36 5
M  ZZI  36 1
M  ZZM  37 5
M  ZZI  37 1
M  ZZM  38 28
M  ZZI  38 11
M  ZZM  39 5
M  ZZI  39 1
M  ZZM  40 5
M  ZZI  40 1
M  ZZM  41 5
M  ZZI  41 1
M  ZZM  42 5
M  ZZI  42 1
M  ZZM  43 5
M  ZZI  43 1
M  ZZM  44 5
M  ZZI  44 1
M  ZZM  45 5
M  ZZI  45 1
M  ZZM  46 5
M  ZZI  46 1
M  ZZM  47 5
M  ZZI  47 1
M  ZZM  48 5
M  ZZI  48 1
M  ZZM  49 5
M  ZZI  49 1
M  ZZM  50 28
M  ZZI  50 11
M  ZZM  51 5
M  ZZI  51 1
M  ZZM  52 5
M  ZZI  52 1
M  ZZM  53 5
M  ZZI  53 1
M  ZZM  54 5
M  ZZI  54 1
M  ZZM  55 5
M  ZZI  55 1
M  ZZM  56 5
M  ZZI  56 1
M  ZZM  57 5
M  ZZI  57 1
M  ZZM  58 5
M  ZZI  58 1
M  ZZM  59 5
M  ZZI  59 1
M  ZZM  60 5
M  ZZI  60 1
M  ZZM  61 5
M  ZZI  61 1
M  ZZM  62 5
M  ZZI  62 1
M  ZZM  63 5
M  ZZI  63 1
M  ZZM  64 5
M  ZZI  64 1
M  ZZM  65 5
M  ZZI  65 1
M  ZZM  66 21
M  ZZI  66 20
M  ZZM  67 5
M  ZZI  67 1
M  ZZM  68 5
M  ZZI  68 1
M  END
> <IX>
1

> <NAME>
VHL_5T8E_44.pdb

> <Score>
-25.953549

> <Natom>
68

> <Nflex>
8

> <Hbond>
-7.953473

> <Hphob>
-6.889351

> <VwInt>
-27.429781

> <Dsolv>
17.259995

> <SolEl>
8.844747

> <Eintl>
4.386422

> <RecConf>
ND

> <projPath>
VHL_maps/

> <NAME_>
VHL_5T8E_44.pdb

$$$$
