VHL_6YOJ_4.pdb
  MOLSOFT 04032206443D

 65 67  0  0  1  0  0  0  0  0999 V2000
   17.2787   -6.2448   -4.3693 C   0  0  0  0  0  0  0  0  0  0  0  0
   16.4443   -5.1381   -3.7777 C   0  0  0  0  0  0  0  0  0  0  0  0
   15.3409   -5.3422   -3.2956 O   0  0  0  0  0  0  0  0  0  0  0  0
   17.0284   -3.8927   -3.8640 N   0  0  0  0  0  0  0  0  0  0  0  0
   16.2882   -2.6666   -3.5535 C   0  0  1  0  0  0  0  0  0  0  0  0
   16.5580   -2.0963   -2.1278 C   0  0  0  0  0  0  0  0  0  0  0  0
   17.9934   -1.5754   -1.9613 C   0  0  0  0  0  0  0  0  0  0  0  0
   15.5889   -0.9380   -1.8430 C   0  0  0  0  0  0  0  0  0  0  0  0
   16.3098   -3.1774   -1.0620 C   0  0  0  0  0  0  0  0  0  0  0  0
   16.6534   -1.7011   -4.6989 C   0  0  0  0  0  0  0  0  0  0  0  0
   17.8245   -1.4667   -4.9742 O   0  0  0  0  0  0  0  0  0  0  0  0
   15.5999   -1.1559   -5.4317 N   0  0  0  0  0  0  0  0  0  0  0  0
   15.8451   -0.3795   -6.6379 C   0  0  2  0  0  0  0  0  0  0  0  0
   16.1850    1.0749   -6.3027 C   0  0  0  0  0  0  0  0  0  0  0  0
   15.5161    1.7544   -5.5356 O   0  0  0  0  0  0  0  0  0  0  0  0
   17.3033    1.5469   -6.9626 N   0  0  0  0  0  0  0  0  0  0  0  0
   17.7827    2.9037   -6.7588 C   0  0  0  0  0  0  0  0  0  0  0  0
   19.2193    3.1243   -7.1695 C   0  0  0  0  0  0  0  0  0  0  0  0
   20.1521    2.0935   -7.1613 C   0  0  0  0  0  0  0  0  0  0  0  0
   21.4708    2.3256   -7.4963 C   0  0  0  0  0  0  0  0  0  0  0  0
   21.9124    3.5958   -7.8326 C   0  0  0  0  0  0  0  0  0  0  0  0
   23.3133    3.8167   -8.1520 C   0  0  0  0  0  0  0  0  0  0  0  0
   24.3673    4.2168   -7.3431 C   0  0  0  0  0  0  0  0  0  0  0  0
   24.3019    4.5649   -5.9056 C   0  0  0  0  0  0  0  0  0  0  0  0
   25.5975    4.2629   -7.9678 N   0  0  0  0  0  0  0  0  0  0  0  0
   25.4642    3.9291   -9.2318 C   0  0  0  0  0  0  0  0  0  0  0  0
   23.8833    3.5480   -9.7501 S   0  0  0  0  0  0  0  0  0  0  0  0
   20.9921    4.6361   -7.8324 C   0  0  0  0  0  0  0  0  0  0  0  0
   19.6645    4.4012   -7.5052 C   0  0  0  0  0  0  0  0  0  0  0  0
   14.5371   -0.4696   -7.4044 C   0  0  0  0  0  0  0  0  0  0  0  0
   13.4749   -0.5978   -6.3226 C   0  0  1  0  0  0  0  0  0  0  0  0
   12.3411   -1.3228   -6.7979 O   0  0  0  0  0  0  0  0  0  0  0  0
   14.1799   -1.3815   -5.2275 C   0  0  0  0  0  0  0  0  0  0  0  0
   18.2465   -5.8797   -4.7252 H   0  0  0  0  0  0  0  0  0  0  0  0
   16.7402   -6.6815   -5.2160 H   0  0  0  0  0  0  0  0  0  0  0  0
   17.4515   -7.0146   -3.6142 H   0  0  0  0  0  0  0  0  0  0  0  0
   17.9765   -3.8122   -4.2215 H   0  0  0  0  0  0  0  0  0  0  0  0
   15.2286   -2.9262   -3.6147 H   0  0  0  0  0  0  0  0  0  0  0  0
   18.2037   -1.3067   -0.9213 H   0  0  0  0  0  0  0  0  0  0  0  0
   18.1778   -0.6785   -2.5598 H   0  0  0  0  0  0  0  0  0  0  0  0
   18.7270   -2.3275   -2.2554 H   0  0  0  0  0  0  0  0  0  0  0  0
   15.7177   -0.1147   -2.5524 H   0  0  0  0  0  0  0  0  0  0  0  0
   15.7432   -0.5250   -0.8408 H   0  0  0  0  0  0  0  0  0  0  0  0
   14.5455   -1.2662   -1.8989 H   0  0  0  0  0  0  0  0  0  0  0  0
   16.4094   -2.7717   -0.0500 H   0  0  0  0  0  0  0  0  0  0  0  0
   17.0232   -4.0027   -1.1426 H   0  0  0  0  0  0  0  0  0  0  0  0
   15.3009   -3.5954   -1.1417 H   0  0  0  0  0  0  0  0  0  0  0  0
   16.6658   -0.8306   -7.2076 H   0  0  0  0  0  0  0  0  0  0  0  0
   17.8060    0.9300   -7.5950 H   0  0  0  0  0  0  0  0  0  0  0  0
   17.1218    3.5550   -7.3414 H   0  0  0  0  0  0  0  0  0  0  0  0
   17.6636    3.1656   -5.7019 H   0  0  0  0  0  0  0  0  0  0  0  0
   19.8615    1.0842   -6.8924 H   0  0  0  0  0  0  0  0  0  0  0  0
   22.1591    1.4893   -7.4979 H   0  0  0  0  0  0  0  0  0  0  0  0
   25.2212    5.0570   -5.5755 H   0  0  0  0  0  0  0  0  0  0  0  0
   24.1632    3.6708   -5.2911 H   0  0  0  0  0  0  0  0  0  0  0  0
   23.4619    5.2358   -5.7117 H   0  0  0  0  0  0  0  0  0  0  0  0
   26.3025    3.8979   -9.9129 H   0  0  0  0  0  0  0  0  0  0  0  0
   21.3053    5.6437   -8.0894 H   0  0  0  0  0  0  0  0  0  0  0  0
   18.9699    5.2364   -7.5085 H   0  0  0  0  0  0  0  0  0  0  0  0
   14.3531    0.3847   -8.0646 H   0  0  0  0  0  0  0  0  0  0  0  0
   14.5448   -1.3704   -8.0268 H   0  0  0  0  0  0  0  0  0  0  0  0
   13.1483    0.3820   -5.9568 H   0  0  0  0  0  0  0  0  0  0  0  0
   11.9005   -0.7866   -7.4825 H   0  0  0  0  0  0  0  0  0  0  0  0
   13.9690   -2.4535   -5.2920 H   0  0  0  0  0  0  0  0  0  0  0  0
   13.8844   -1.0396   -4.2317 H   0  0  0  0  0  0  0  0  0  0  0  0
  1 34  1  0  0  0  0
  1 35  1  0  0  0  0
  1 36  1  0  0  0  0
  1  2  1  0  0  0  0
  2  3  2  0  0  0  0
  2  4  1  0  0  0  0
  4 37  1  0  0  0  0
  5  4  1  0  0  0  0
  5 38  1  0  0  0  0
  5  6  1  0  0  0  0
  5 10  1  0  0  0  0
  6  7  1  0  0  0  0
  6  8  1  0  0  0  0
  6  9  1  0  0  0  0
  7 39  1  0  0  0  0
  7 40  1  0  0  0  0
  7 41  1  0  0  0  0
  8 42  1  0  0  0  0
  8 43  1  0  0  0  0
  8 44  1  0  0  0  0
  9 45  1  0  0  0  0
  9 46  1  0  0  0  0
  9 47  1  0  0  0  0
 10 11  2  0  0  0  0
 10 12  1  0  0  0  0
 12 33  1  0  0  0  0
 13 12  1  0  0  0  0
 13 30  1  0  0  0  0
 13 48  1  0  0  0  0
 13 14  1  0  0  0  0
 14 15  2  0  0  0  0
 14 16  1  0  0  0  0
 16 49  1  0  0  0  0
 16 17  1  0  0  0  0
 17 50  1  0  0  0  0
 17 51  1  0  0  0  0
 17 18  1  0  0  0  0
 18 19  1  0  0  0  0
 18 29  2  0  0  0  0
 19 52  1  0  0  0  0
 19 20  2  0  0  0  0
 20 53  1  0  0  0  0
 20 21  1  0  0  0  0
 21 28  2  0  0  0  0
 21 22  1  0  0  0  0
 22 23  2  0  0  0  0
 22 27  1  0  0  0  0
 23 24  1  0  0  0  0
 23 25  1  0  0  0  0
 24 54  1  0  0  0  0
 24 55  1  0  0  0  0
 24 56  1  0  0  0  0
 25 26  2  0  0  0  0
 26 57  1  0  0  0  0
 26 27  1  0  0  0  0
 28 58  1  0  0  0  0
 28 29  1  0  0  0  0
 29 59  1  0  0  0  0
 31 30  1  0  0  0  0
 30 60  1  0  0  0  0
 30 61  1  0  0  0  0
 31 33  1  0  0  0  0
 31 62  1  0  0  0  0
 31 32  1  0  0  0  0
 32 63  1  0  0  0  0
 33 64  1  0  0  0  0
 33 65  1  0  0  0  0
M  ZZC   1 c1
M  ZZC   2 c2
M  ZZC   3 o1
M  ZZC   4 n1
M  ZZC   5 c3
M  ZZC   6 c4
M  ZZC   7 c5
M  ZZC   8 c6
M  ZZC   9 c7
M  ZZC  10 c8
M  ZZC  11 o2
M  ZZC  12 n2
M  ZZC  13 c9
M  ZZC  14 c10
M  ZZC  15 o3
M  ZZC  16 n3
M  ZZC  17 c11
M  ZZC  18 c12
M  ZZC  19 c13
M  ZZC  20 c14
M  ZZC  21 c15
M  ZZC  22 c16
M  ZZC  23 c17
M  ZZC  24 c18
M  ZZC  25 n4
M  ZZC  26 c19
M  ZZC  27 s1
M  ZZC  28 c20
M  ZZC  29 c21
M  ZZC  30 c22
M  ZZC  31 c23
M  ZZC  32 o4
M  ZZC  33 c24
M  ZZC  34 h11
M  ZZC  35 h12
M  ZZC  36 h13
M  ZZC  37 h01
M  ZZC  38 h31
M  ZZC  39 h51
M  ZZC  40 h52
M  ZZC  41 h53
M  ZZC  42 h61
M  ZZC  43 h62
M  ZZC  44 h63
M  ZZC  45 h71
M  ZZC  46 h72
M  ZZC  47 h73
M  ZZC  48 h91
M  ZZC  49 h02
M  ZZC  50 h111
M  ZZC  51 h112
M  ZZC  52 h131
M  ZZC  53 h141
M  ZZC  54 h181
M  ZZC  55 h182
M  ZZC  56 h183
M  ZZC  57 h191
M  ZZC  58 h201
M  ZZC  59 h211
M  ZZC  60 h221
M  ZZC  61 h222
M  ZZC  62 h231
M  ZZC  63 h41
M  ZZC  64 h241
M  ZZC  65 h242
M  ZZM   1 1
M  ZZI   1 111
M  ZZM   2 3
M  ZZI   2 121
M  ZZM   3 7
M  ZZI   3 81
M  ZZM   4 10
M  ZZI   4 211
M  ZZM   5 1
M  ZZI   5 113
M  ZZM   6 1
M  ZZI   6 110
M  ZZM   7 1
M  ZZI   7 111
M  ZZM   8 1
M  ZZI   8 111
M  ZZM   9 1
M  ZZI   9 111
M  ZZM  10 3
M  ZZI  10 121
M  ZZM  11 7
M  ZZI  11 81
M  ZZM  12 10
M  ZZI  12 192
M  ZZM  13 1
M  ZZI  13 113
M  ZZM  14 3
M  ZZI  14 121
M  ZZM  15 7
M  ZZI  15 81
M  ZZM  16 10
M  ZZI  16 211
M  ZZM  17 1
M  ZZI  17 112
M  ZZM  18 37
M  ZZI  18 124
M  ZZM  19 37
M  ZZI  19 125
M  ZZM  20 37
M  ZZI  20 125
M  ZZM  21 37
M  ZZI  21 124
M  ZZM  22 63
M  ZZI  22 104
M  ZZM  23 64
M  ZZI  23 105
M  ZZM  24 1
M  ZZI  24 111
M  ZZM  25 66
M  ZZI  25 222
M  ZZM  26 63
M  ZZI  26 104
M  ZZM  27 44
M  ZZI  27 248
M  ZZM  28 37
M  ZZI  28 125
M  ZZM  29 37
M  ZZI  29 125
M  ZZM  30 1
M  ZZI  30 112
M  ZZM  31 1
M  ZZI  31 113
M  ZZM  32 6
M  ZZI  32 60
M  ZZM  33 1
M  ZZI  33 112
M  ZZM  34 5
M  ZZI  34 1
M  ZZM  35 5
M  ZZI  35 1
M  ZZM  36 5
M  ZZI  36 1
M  ZZM  37 28
M  ZZI  37 11
M  ZZM  38 5
M  ZZI  38 1
M  ZZM  39 5
M  ZZI  39 1
M  ZZM  40 5
M  ZZI  40 1
M  ZZM  41 5
M  ZZI  41 1
M  ZZM  42 5
M  ZZI  42 1
M  ZZM  43 5
M  ZZI  43 1
M  ZZM  44 5
M  ZZI  44 1
M  ZZM  45 5
M  ZZI  45 1
M  ZZM  46 5
M  ZZI  46 1
M  ZZM  47 5
M  ZZI  47 1
M  ZZM  48 5
M  ZZI  48 1
M  ZZM  49 28
M  ZZI  49 11
M  ZZM  50 5
M  ZZI  50 1
M  ZZM  51 5
M  ZZI  51 1
M  ZZM  52 5
M  ZZI  52 1
M  ZZM  53 5
M  ZZI  53 1
M  ZZM  54 5
M  ZZI  54 1
M  ZZM  55 5
M  ZZI  55 1
M  ZZM  56 5
M  ZZI  56 1
M  ZZM  57 5
M  ZZI  57 1
M  ZZM  58 5
M  ZZI  58 1
M  ZZM  59 5
M  ZZI  59 1
M  ZZM  60 5
M  ZZI  60 1
M  ZZM  61 5
M  ZZI  61 1
M  ZZM  62 5
M  ZZI  62 1
M  ZZM  63 21
M  ZZI  63 20
M  ZZM  64 5
M  ZZI  64 1
M  ZZM  65 5
M  ZZI  65 1
M  END
> <IX>
1

> <NAME>
VHL_6YOJ_4.pdb

> <Score>
-16.356218

> <Natom>
65

> <Nflex>
8

> <Hbond>
-4.862518

> <Hphob>
-6.270407

> <VwInt>
-32.319455

> <Dsolv>
17.489112

> <SolEl>
17.851329

> <Eintl>
4.613115

> <RecConf>
ND

> <projPath>
VHL_maps/

> <NAME_>
VHL_6YOJ_4.pdb

$$$$
