VHL_5F1H_3.pdb
  MOLSOFT 04032206433D

 70 73  0  0  1  0  0  0  0  0999 V2000
   18.7232   -5.4012   -5.9120 F   0  0  0  0  0  0  0  0  0  0  0  0
   17.6901   -6.0044   -5.2007 C   0  0  0  0  0  0  0  0  0  0  0  0
   16.8062   -5.0832   -4.4230 C   0  0  0  0  0  0  0  0  0  0  0  0
   15.7308   -5.4536   -3.9764 O   0  0  0  0  0  0  0  0  0  0  0  0
   17.2894   -3.8001   -4.2824 N   0  0  0  0  0  0  0  0  0  0  0  0
   16.4354   -2.6885   -3.8479 C   0  0  1  0  0  0  0  0  0  0  0  0
   16.6354   -2.2407   -2.3687 C   0  0  0  0  0  0  0  0  0  0  0  0
   15.5910   -1.1782   -1.9927 C   0  0  0  0  0  0  0  0  0  0  0  0
   18.0290   -1.6504   -2.1145 C   0  0  0  0  0  0  0  0  0  0  0  0
   16.4270   -3.4360   -1.4250 C   0  0  0  0  0  0  0  0  0  0  0  0
   16.7117   -1.5931   -4.8952 C   0  0  0  0  0  0  0  0  0  0  0  0
   17.8591   -1.2576   -5.1671 O   0  0  0  0  0  0  0  0  0  0  0  0
   15.6095   -1.0662   -5.5663 N   0  0  0  0  0  0  0  0  0  0  0  0
   15.7842   -0.2681   -6.7695 C   0  0  2  0  0  0  0  0  0  0  0  0
   16.1133    1.1884   -6.4423 C   0  0  0  0  0  0  0  0  0  0  0  0
   15.4119    1.8840   -5.7200 O   0  0  0  0  0  0  0  0  0  0  0  0
   17.2716    1.6344   -7.0479 N   0  0  0  0  0  0  0  0  0  0  0  0
   17.7407    2.9972   -6.8714 C   0  0  0  0  0  0  0  0  0  0  0  0
   19.1799    3.2025   -7.2814 C   0  0  0  0  0  0  0  0  0  0  0  0
   19.6230    4.4273   -7.7751 C   0  0  0  0  0  0  0  0  0  0  0  0
   18.6957    5.4403   -7.9439 O   0  0  0  0  0  0  0  0  0  0  0  0
   20.9541    4.6524   -8.1084 C   0  0  0  0  0  0  0  0  0  0  0  0
   21.8850    3.6330   -7.9506 C   0  0  0  0  0  0  0  0  0  0  0  0
   23.2893    3.8263   -8.2755 C   0  0  0  0  0  0  0  0  0  0  0  0
   24.3618    4.1682   -7.4641 C   0  0  0  0  0  0  0  0  0  0  0  0
   24.3172    4.4834   -6.0184 C   0  0  0  0  0  0  0  0  0  0  0  0
   25.5877    4.1971   -8.0979 N   0  0  0  0  0  0  0  0  0  0  0  0
   25.4339    3.9118   -9.3713 C   0  0  0  0  0  0  0  0  0  0  0  0
   23.8382    3.5957   -9.8870 S   0  0  0  0  0  0  0  0  0  0  0  0
   21.4502    2.4083   -7.4644 C   0  0  0  0  0  0  0  0  0  0  0  0
   20.1281    2.1974   -7.1242 C   0  0  0  0  0  0  0  0  0  0  0  0
   14.4481   -0.3837   -7.4797 C   0  0  0  0  0  0  0  0  0  0  0  0
   13.4348   -0.5553   -6.3593 C   0  0  1  0  0  0  0  0  0  0  0  0
   12.2986   -1.2991   -6.7994 O   0  0  0  0  0  0  0  0  0  0  0  0
   14.2055   -1.3442   -5.3147 C   0  0  0  0  0  0  0  0  0  0  0  0
   18.0128   -7.3770   -4.6798 C   0  0  0  0  0  0  0  0  0  0  0  0
   17.1190   -7.2359   -5.8663 C   0  0  0  0  0  0  0  0  0  0  0  0
   18.2191   -3.5958   -4.6420 H   0  0  0  0  0  0  0  0  0  0  0  0
   15.4056   -3.0375   -3.9513 H   0  0  0  0  0  0  0  0  0  0  0  0
   15.6861   -0.2857   -2.6198 H   0  0  0  0  0  0  0  0  0  0  0  0
   15.7072   -0.8524   -0.9536 H   0  0  0  0  0  0  0  0  0  0  0  0
   14.5688   -1.5485   -2.1174 H   0  0  0  0  0  0  0  0  0  0  0  0
   18.1881   -1.4429   -1.0516 H   0  0  0  0  0  0  0  0  0  0  0  0
   18.1790   -0.7063   -2.6464 H   0  0  0  0  0  0  0  0  0  0  0  0
   18.8140   -2.3370   -2.4293 H   0  0  0  0  0  0  0  0  0  0  0  0
   16.4916   -3.1346   -0.3745 H   0  0  0  0  0  0  0  0  0  0  0  0
   17.1801   -4.2111   -1.5788 H   0  0  0  0  0  0  0  0  0  0  0  0
   15.4434   -3.8954   -1.5699 H   0  0  0  0  0  0  0  0  0  0  0  0
   16.5845   -0.7000   -7.3822 H   0  0  0  0  0  0  0  0  0  0  0  0
   17.8171    0.9903   -7.6149 H   0  0  0  0  0  0  0  0  0  0  0  0
   17.0686    3.6252   -7.4657 H   0  0  0  0  0  0  0  0  0  0  0  0
   17.6170    3.2794   -5.8203 H   0  0  0  0  0  0  0  0  0  0  0  0
   19.1436    6.2050   -8.3462 H   0  0  0  0  0  0  0  0  0  0  0  0
   21.2694    5.6186   -8.4901 H   0  0  0  0  0  0  0  0  0  0  0  0
   25.3088    4.7527   -5.6432 H   0  0  0  0  0  0  0  0  0  0  0  0
   23.9693    3.6223   -5.4446 H   0  0  0  0  0  0  0  0  0  0  0  0
   23.6442    5.3232   -5.8237 H   0  0  0  0  0  0  0  0  0  0  0  0
   26.2649    3.8785  -10.0612 H   0  0  0  0  0  0  0  0  0  0  0  0
   22.1461    1.5847   -7.3630 H   0  0  0  0  0  0  0  0  0  0  0  0
   19.8426    1.2235   -6.7403 H   0  0  0  0  0  0  0  0  0  0  0  0
   14.2138    0.4706   -8.1238 H   0  0  0  0  0  0  0  0  0  0  0  0
   14.4590   -1.2803   -8.1068 H   0  0  0  0  0  0  0  0  0  0  0  0
   13.1026    0.4095   -5.9604 H   0  0  0  0  0  0  0  0  0  0  0  0
   11.8346   -0.7768   -7.4794 H   0  0  0  0  0  0  0  0  0  0  0  0
   14.0220   -2.4189   -5.4013 H   0  0  0  0  0  0  0  0  0  0  0  0
   13.9361   -1.0392   -4.3007 H   0  0  0  0  0  0  0  0  0  0  0  0
   19.0083   -7.7579   -4.8630 H   0  0  0  0  0  0  0  0  0  0  0  0
   17.5607   -7.6993   -3.7526 H   0  0  0  0  0  0  0  0  0  0  0  0
   16.0734   -7.4704   -5.7334 H   0  0  0  0  0  0  0  0  0  0  0  0
   17.5251   -7.5570   -6.8141 H   0  0  0  0  0  0  0  0  0  0  0  0
  2  1  1  0  0  0  0
  2 36  1  0  0  0  0
  2  3  1  0  0  0  0
  2 37  1  0  0  0  0
  3  4  2  0  0  0  0
  3  5  1  0  0  0  0
  5 38  1  0  0  0  0
  6  5  1  0  0  0  0
  6 39  1  0  0  0  0
  6  7  1  0  0  0  0
  6 11  1  0  0  0  0
  7  8  1  0  0  0  0
  7  9  1  0  0  0  0
  7 10  1  0  0  0  0
  8 40  1  0  0  0  0
  8 41  1  0  0  0  0
  8 42  1  0  0  0  0
  9 43  1  0  0  0  0
  9 44  1  0  0  0  0
  9 45  1  0  0  0  0
 10 46  1  0  0  0  0
 10 47  1  0  0  0  0
 10 48  1  0  0  0  0
 11 12  2  0  0  0  0
 11 13  1  0  0  0  0
 13 35  1  0  0  0  0
 14 13  1  0  0  0  0
 14 32  1  0  0  0  0
 14 49  1  0  0  0  0
 14 15  1  0  0  0  0
 15 16  2  0  0  0  0
 15 17  1  0  0  0  0
 17 50  1  0  0  0  0
 17 18  1  0  0  0  0
 18 51  1  0  0  0  0
 18 52  1  0  0  0  0
 18 19  1  0  0  0  0
 19 20  2  0  0  0  0
 19 31  1  0  0  0  0
 20 21  1  0  0  0  0
 20 22  1  0  0  0  0
 21 53  1  0  0  0  0
 22 54  1  0  0  0  0
 22 23  2  0  0  0  0
 23 30  1  0  0  0  0
 23 24  1  0  0  0  0
 24 25  2  0  0  0  0
 24 29  1  0  0  0  0
 25 26  1  0  0  0  0
 25 27  1  0  0  0  0
 26 55  1  0  0  0  0
 26 56  1  0  0  0  0
 26 57  1  0  0  0  0
 27 28  2  0  0  0  0
 28 58  1  0  0  0  0
 28 29  1  0  0  0  0
 30 59  1  0  0  0  0
 30 31  2  0  0  0  0
 31 60  1  0  0  0  0
 33 32  1  0  0  0  0
 32 61  1  0  0  0  0
 32 62  1  0  0  0  0
 33 35  1  0  0  0  0
 33 63  1  0  0  0  0
 33 34  1  0  0  0  0
 34 64  1  0  0  0  0
 35 65  1  0  0  0  0
 35 66  1  0  0  0  0
 36 67  1  0  0  0  0
 36 68  1  0  0  0  0
 36 37  1  0  0  0  0
 37 69  1  0  0  0  0
 37 70  1  0  0  0  0
M  ZZC   1 f1
M  ZZC   2 c1
M  ZZC   3 c2
M  ZZC   4 o1
M  ZZC   5 n1
M  ZZC   6 c3
M  ZZC   7 c4
M  ZZC   8 c5
M  ZZC   9 c6
M  ZZC  10 c7
M  ZZC  11 c8
M  ZZC  12 o2
M  ZZC  13 n2
M  ZZC  14 c9
M  ZZC  15 c10
M  ZZC  16 o3
M  ZZC  17 n3
M  ZZC  18 c11
M  ZZC  19 c12
M  ZZC  20 c13
M  ZZC  21 o4
M  ZZC  22 c14
M  ZZC  23 c15
M  ZZC  24 c16
M  ZZC  25 c17
M  ZZC  26 c18
M  ZZC  27 n4
M  ZZC  28 c19
M  ZZC  29 s1
M  ZZC  30 c20
M  ZZC  31 c21
M  ZZC  32 c22
M  ZZC  33 c23
M  ZZC  34 o5
M  ZZC  35 c24
M  ZZC  36 c25
M  ZZC  37 c26
M  ZZC  38 h11
M  ZZC  39 h31
M  ZZC  40 h51
M  ZZC  41 h52
M  ZZC  42 h53
M  ZZC  43 h61
M  ZZC  44 h62
M  ZZC  45 h63
M  ZZC  46 h71
M  ZZC  47 h72
M  ZZC  48 h73
M  ZZC  49 h91
M  ZZC  50 h01
M  ZZC  51 h111
M  ZZC  52 h112
M  ZZC  53 h41
M  ZZC  54 h141
M  ZZC  55 h181
M  ZZC  56 h182
M  ZZC  57 h183
M  ZZC  58 h191
M  ZZC  59 h201
M  ZZC  60 h211
M  ZZC  61 h221
M  ZZC  62 h222
M  ZZC  63 h231
M  ZZC  64 h02
M  ZZC  65 h241
M  ZZC  66 h242
M  ZZC  67 h251
M  ZZC  68 h252
M  ZZC  69 h261
M  ZZC  70 h262
M  ZZM   1 11
M  ZZI   1 90
M  ZZM   2 22
M  ZZI   2 109
M  ZZM   3 3
M  ZZI   3 121
M  ZZM   4 7
M  ZZI   4 81
M  ZZM   5 10
M  ZZI   5 211
M  ZZM   6 1
M  ZZI   6 113
M  ZZM   7 1
M  ZZI   7 110
M  ZZM   8 1
M  ZZI   8 111
M  ZZM   9 1
M  ZZI   9 111
M  ZZM  10 1
M  ZZI  10 111
M  ZZM  11 3
M  ZZI  11 121
M  ZZM  12 7
M  ZZI  12 81
M  ZZM  13 10
M  ZZI  13 192
M  ZZM  14 1
M  ZZI  14 113
M  ZZM  15 3
M  ZZI  15 121
M  ZZM  16 7
M  ZZI  16 81
M  ZZM  17 10
M  ZZI  17 211
M  ZZM  18 1
M  ZZI  18 112
M  ZZM  19 37
M  ZZI  19 124
M  ZZM  20 37
M  ZZI  20 124
M  ZZM  21 6
M  ZZI  21 62
M  ZZM  22 37
M  ZZI  22 125
M  ZZM  23 37
M  ZZI  23 124
M  ZZM  24 63
M  ZZI  24 104
M  ZZM  25 64
M  ZZI  25 105
M  ZZM  26 1
M  ZZI  26 111
M  ZZM  27 66
M  ZZI  27 222
M  ZZM  28 63
M  ZZI  28 104
M  ZZM  29 44
M  ZZI  29 248
M  ZZM  30 37
M  ZZI  30 125
M  ZZM  31 37
M  ZZI  31 125
M  ZZM  32 1
M  ZZI  32 112
M  ZZM  33 1
M  ZZI  33 113
M  ZZM  34 6
M  ZZI  34 60
M  ZZM  35 1
M  ZZI  35 112
M  ZZM  36 22
M  ZZI  36 109
M  ZZM  37 22
M  ZZI  37 109
M  ZZM  38 28
M  ZZI  38 11
M  ZZM  39 5
M  ZZI  39 1
M  ZZM  40 5
M  ZZI  40 1
M  ZZM  41 5
M  ZZI  41 1
M  ZZM  42 5
M  ZZI  42 1
M  ZZM  43 5
M  ZZI  43 1
M  ZZM  44 5
M  ZZI  44 1
M  ZZM  45 5
M  ZZI  45 1
M  ZZM  46 5
M  ZZI  46 1
M  ZZM  47 5
M  ZZI  47 1
M  ZZM  48 5
M  ZZI  48 1
M  ZZM  49 5
M  ZZI  49 1
M  ZZM  50 28
M  ZZI  50 11
M  ZZM  51 5
M  ZZI  51 1
M  ZZM  52 5
M  ZZI  52 1
M  ZZM  53 29
M  ZZI  53 27
M  ZZM  54 5
M  ZZI  54 1
M  ZZM  55 5
M  ZZI  55 1
M  ZZM  56 5
M  ZZI  56 1
M  ZZM  57 5
M  ZZI  57 1
M  ZZM  58 5
M  ZZI  58 1
M  ZZM  59 5
M  ZZI  59 1
M  ZZM  60 5
M  ZZI  60 1
M  ZZM  61 5
M  ZZI  61 1
M  ZZM  62 5
M  ZZI  62 1
M  ZZM  63 5
M  ZZI  63 1
M  ZZM  64 21
M  ZZI  64 20
M  ZZM  65 5
M  ZZI  65 1
M  ZZM  66 5
M  ZZI  66 1
M  ZZM  67 5
M  ZZI  67 1
M  ZZM  68 5
M  ZZI  68 1
M  ZZM  69 5
M  ZZI  69 1
M  ZZM  70 5
M  ZZI  70 1
M  END
> <IX>
1

> <NAME>
VHL_5F1H_3.pdb

> <Score>
-17.452569

> <Natom>
70

> <Nflex>
9

> <Hbond>
-6.412608

> <Hphob>
-6.557278

> <VwInt>
-32.51196

> <Dsolv>
18.195884

> <SolEl>
18.914283

> <Eintl>
6.910544

> <RecConf>
ND

> <projPath>
VHL_maps/

> <NAME_>
VHL_5F1H_3.pdb

$$$$
