VHL_5LLI_5.pdb
  MOLSOFT 04032206413D

 65 67  0  0  1  0  0  0  0  0999 V2000
   12.2173    6.6731   -2.1692 O   0  0  0  0  0  0  0  0  0  0  0  0
   13.3949    6.9971   -2.1783 C   0  0  0  0  0  0  0  0  0  0  0  0
   14.4016    6.2979   -2.8180 N   0  0  0  0  0  0  0  0  0  0  0  0
   14.1600    5.0756   -3.5924 C   0  0  2  0  0  0  0  0  0  0  0  0
   14.3580    3.7703   -2.7512 C   0  0  0  0  0  0  0  0  0  0  0  0
   13.2530    3.6496   -1.6942 C   0  0  0  0  0  0  0  0  0  0  0  0
   14.2457    2.5291   -3.6503 C   0  0  0  0  0  0  0  0  0  0  0  0
   15.7041    3.7319   -2.0045 C   0  0  0  0  0  0  0  0  0  0  0  0
   15.0593    5.1480   -4.8423 C   0  0  0  0  0  0  0  0  0  0  0  0
   16.1618    4.6197   -4.8781 O   0  0  0  0  0  0  0  0  0  0  0  0
   14.5830    5.8665   -5.9405 N   0  0  0  0  0  0  0  0  0  0  0  0
   15.3267    5.8773   -7.1983 C   0  0  1  0  0  0  0  0  0  0  0  0
   15.1477    4.5789   -7.9918 C   0  0  0  0  0  0  0  0  0  0  0  0
   15.9234    4.2723   -8.8838 O   0  0  0  0  0  0  0  0  0  0  0  0
   14.0070    3.8553   -7.7048 N   0  0  0  0  0  0  0  0  0  0  0  0
   13.6832    2.5945   -8.3438 C   0  0  0  0  0  0  0  0  0  0  0  0
   13.9763    1.4149   -7.4470 C   0  0  0  0  0  0  0  0  0  0  0  0
   12.9520    0.6837   -6.8529 C   0  0  0  0  0  0  0  0  0  0  0  0
   13.2286   -0.3651   -5.9907 C   0  0  0  0  0  0  0  0  0  0  0  0
   14.5407   -0.7206   -5.6777 C   0  0  0  0  0  0  0  0  0  0  0  0
   14.8425   -1.7809   -4.7097 C   0  0  0  0  0  0  0  0  0  0  0  0
   15.8037   -2.7886   -4.7160 C   0  0  0  0  0  0  0  0  0  0  0  0
   16.7968   -3.0752   -5.7728 C   0  0  0  0  0  0  0  0  0  0  0  0
   15.8087   -3.6155   -3.6098 N   0  0  0  0  0  0  0  0  0  0  0  0
   14.8753   -3.2370   -2.7699 C   0  0  0  0  0  0  0  0  0  0  0  0
   13.9481   -1.8839   -3.2382 S   0  0  0  0  0  0  0  0  0  0  0  0
   15.5622   -0.0094   -6.3045 C   0  0  0  0  0  0  0  0  0  0  0  0
   15.2859    1.0343   -7.1733 C   0  0  0  0  0  0  0  0  0  0  0  0
   14.7796    7.0724   -7.9649 C   0  0  0  0  0  0  0  0  0  0  0  0
   13.3778    7.2609   -7.4114 C   0  0  2  0  0  0  0  0  0  0  0  0
   12.9736    8.6230   -7.5125 O   0  0  0  0  0  0  0  0  0  0  0  0
   13.5027    6.8391   -5.9562 C   0  0  0  0  0  0  0  0  0  0  0  0
   13.8889    8.2265   -1.4696 C   0  0  0  0  0  0  0  0  0  0  0  0
   15.3560    6.6345   -2.7358 H   0  0  0  0  0  0  0  0  0  0  0  0
   13.1206    5.0931   -3.9327 H   0  0  0  0  0  0  0  0  0  0  0  0
   12.2567    3.6742   -2.1422 H   0  0  0  0  0  0  0  0  0  0  0  0
   13.3171    4.4612   -0.9679 H   0  0  0  0  0  0  0  0  0  0  0  0
   13.3281    2.7116   -1.1341 H   0  0  0  0  0  0  0  0  0  0  0  0
   15.0904    2.4366   -4.3363 H   0  0  0  0  0  0  0  0  0  0  0  0
   13.3326    2.5578   -4.2513 H   0  0  0  0  0  0  0  0  0  0  0  0
   14.2200    1.6074   -3.0602 H   0  0  0  0  0  0  0  0  0  0  0  0
   15.8350    4.5800   -1.3287 H   0  0  0  0  0  0  0  0  0  0  0  0
   16.5440    3.7595   -2.7065 H   0  0  0  0  0  0  0  0  0  0  0  0
   15.8151    2.8185   -1.4120 H   0  0  0  0  0  0  0  0  0  0  0  0
   16.3977    5.9901   -6.9942 H   0  0  0  0  0  0  0  0  0  0  0  0
   13.3842    4.2019   -6.9847 H   0  0  0  0  0  0  0  0  0  0  0  0
   12.6229    2.6374   -8.6066 H   0  0  0  0  0  0  0  0  0  0  0  0
   14.2377    2.4979   -9.2816 H   0  0  0  0  0  0  0  0  0  0  0  0
   11.9129    0.9306   -7.0479 H   0  0  0  0  0  0  0  0  0  0  0  0
   12.3899   -0.9014   -5.5591 H   0  0  0  0  0  0  0  0  0  0  0  0
   17.1146   -4.1218   -5.7409 H   0  0  0  0  0  0  0  0  0  0  0  0
   17.6841   -2.4504   -5.6415 H   0  0  0  0  0  0  0  0  0  0  0  0
   16.3719   -2.8856   -6.7629 H   0  0  0  0  0  0  0  0  0  0  0  0
   14.7036   -3.7469   -1.8326 H   0  0  0  0  0  0  0  0  0  0  0  0
   16.6030   -0.2412   -6.1004 H   0  0  0  0  0  0  0  0  0  0  0  0
   16.1151    1.5721   -7.6239 H   0  0  0  0  0  0  0  0  0  0  0  0
   15.3859    7.9633   -7.7641 H   0  0  0  0  0  0  0  0  0  0  0  0
   14.7719    6.9330   -9.0512 H   0  0  0  0  0  0  0  0  0  0  0  0
   12.6599    6.6298   -7.9469 H   0  0  0  0  0  0  0  0  0  0  0  0
   13.2197    8.9326   -8.4007 H   0  0  0  0  0  0  0  0  0  0  0  0
   12.5721    6.4277   -5.5600 H   0  0  0  0  0  0  0  0  0  0  0  0
   13.7819    7.6806   -5.3124 H   0  0  0  0  0  0  0  0  0  0  0  0
   13.0577    8.7088   -0.9463 H   0  0  0  0  0  0  0  0  0  0  0  0
   14.3088    8.9283   -2.1967 H   0  0  0  0  0  0  0  0  0  0  0  0
   14.6562    7.9517   -0.7394 H   0  0  0  0  0  0  0  0  0  0  0  0
  1  2  2  0  0  0  0
  2  3  1  0  0  0  0
  2 33  1  0  0  0  0
  4  3  1  0  0  0  0
  3 34  1  0  0  0  0
  4  5  1  0  0  0  0
  4 35  1  0  0  0  0
  4  9  1  0  0  0  0
  5  6  1  0  0  0  0
  5  7  1  0  0  0  0
  5  8  1  0  0  0  0
  6 36  1  0  0  0  0
  6 37  1  0  0  0  0
  6 38  1  0  0  0  0
  7 39  1  0  0  0  0
  7 40  1  0  0  0  0
  7 41  1  0  0  0  0
  8 42  1  0  0  0  0
  8 43  1  0  0  0  0
  8 44  1  0  0  0  0
  9 10  2  0  0  0  0
  9 11  1  0  0  0  0
 11 32  1  0  0  0  0
 12 11  1  0  0  0  0
 12 29  1  0  0  0  0
 12 45  1  0  0  0  0
 12 13  1  0  0  0  0
 13 14  2  0  0  0  0
 13 15  1  0  0  0  0
 15 46  1  0  0  0  0
 15 16  1  0  0  0  0
 16 47  1  0  0  0  0
 16 48  1  0  0  0  0
 16 17  1  0  0  0  0
 17 18  1  0  0  0  0
 17 28  2  0  0  0  0
 18 49  1  0  0  0  0
 18 19  2  0  0  0  0
 19 50  1  0  0  0  0
 19 20  1  0  0  0  0
 20 27  2  0  0  0  0
 20 21  1  0  0  0  0
 21 22  2  0  0  0  0
 21 26  1  0  0  0  0
 22 23  1  0  0  0  0
 22 24  1  0  0  0  0
 23 51  1  0  0  0  0
 23 52  1  0  0  0  0
 23 53  1  0  0  0  0
 24 25  2  0  0  0  0
 25 54  1  0  0  0  0
 25 26  1  0  0  0  0
 27 55  1  0  0  0  0
 27 28  1  0  0  0  0
 28 56  1  0  0  0  0
 30 29  1  0  0  0  0
 29 57  1  0  0  0  0
 29 58  1  0  0  0  0
 30 32  1  0  0  0  0
 30 59  1  0  0  0  0
 30 31  1  0  0  0  0
 31 60  1  0  0  0  0
 32 61  1  0  0  0  0
 32 62  1  0  0  0  0
 33 63  1  0  0  0  0
 33 64  1  0  0  0  0
 33 65  1  0  0  0  0
M  ZZC   1 o1
M  ZZC   2 c1
M  ZZC   3 n1
M  ZZC   4 c2
M  ZZC   5 c3
M  ZZC   6 c4
M  ZZC   7 c5
M  ZZC   8 c6
M  ZZC   9 c7
M  ZZC  10 o2
M  ZZC  11 n2
M  ZZC  12 c8
M  ZZC  13 c9
M  ZZC  14 o3
M  ZZC  15 n3
M  ZZC  16 c10
M  ZZC  17 c11
M  ZZC  18 c12
M  ZZC  19 c13
M  ZZC  20 c14
M  ZZC  21 c15
M  ZZC  22 c16
M  ZZC  23 c17
M  ZZC  24 n4
M  ZZC  25 c18
M  ZZC  26 s1
M  ZZC  27 c19
M  ZZC  28 c20
M  ZZC  29 c21
M  ZZC  30 c22
M  ZZC  31 o4
M  ZZC  32 c23
M  ZZC  33 c24
M  ZZC  34 h11
M  ZZC  35 h21
M  ZZC  36 h41
M  ZZC  37 h42
M  ZZC  38 h43
M  ZZC  39 h51
M  ZZC  40 h52
M  ZZC  41 h53
M  ZZC  42 h61
M  ZZC  43 h62
M  ZZC  44 h63
M  ZZC  45 h81
M  ZZC  46 h31
M  ZZC  47 h101
M  ZZC  48 h102
M  ZZC  49 h121
M  ZZC  50 h131
M  ZZC  51 h171
M  ZZC  52 h172
M  ZZC  53 h173
M  ZZC  54 h181
M  ZZC  55 h191
M  ZZC  56 h201
M  ZZC  57 h211
M  ZZC  58 h212
M  ZZC  59 h221
M  ZZC  60 h01
M  ZZC  61 h231
M  ZZC  62 h232
M  ZZC  63 h241
M  ZZC  64 h242
M  ZZC  65 h243
M  ZZM   1 7
M  ZZI   1 81
M  ZZM   2 3
M  ZZI   2 121
M  ZZM   3 10
M  ZZI   3 211
M  ZZM   4 1
M  ZZI   4 113
M  ZZM   5 1
M  ZZI   5 110
M  ZZM   6 1
M  ZZI   6 111
M  ZZM   7 1
M  ZZI   7 111
M  ZZM   8 1
M  ZZI   8 111
M  ZZM   9 3
M  ZZI   9 121
M  ZZM  10 7
M  ZZI  10 81
M  ZZM  11 10
M  ZZI  11 192
M  ZZM  12 1
M  ZZI  12 113
M  ZZM  13 3
M  ZZI  13 121
M  ZZM  14 7
M  ZZI  14 81
M  ZZM  15 10
M  ZZI  15 211
M  ZZM  16 1
M  ZZI  16 112
M  ZZM  17 37
M  ZZI  17 124
M  ZZM  18 37
M  ZZI  18 125
M  ZZM  19 37
M  ZZI  19 125
M  ZZM  20 37
M  ZZI  20 124
M  ZZM  21 63
M  ZZI  21 104
M  ZZM  22 64
M  ZZI  22 105
M  ZZM  23 1
M  ZZI  23 111
M  ZZM  24 66
M  ZZI  24 222
M  ZZM  25 63
M  ZZI  25 104
M  ZZM  26 44
M  ZZI  26 248
M  ZZM  27 37
M  ZZI  27 125
M  ZZM  28 37
M  ZZI  28 125
M  ZZM  29 1
M  ZZI  29 112
M  ZZM  30 1
M  ZZI  30 113
M  ZZM  31 6
M  ZZI  31 60
M  ZZM  32 1
M  ZZI  32 112
M  ZZM  33 1
M  ZZI  33 111
M  ZZM  34 28
M  ZZI  34 11
M  ZZM  35 5
M  ZZI  35 1
M  ZZM  36 5
M  ZZI  36 1
M  ZZM  37 5
M  ZZI  37 1
M  ZZM  38 5
M  ZZI  38 1
M  ZZM  39 5
M  ZZI  39 1
M  ZZM  40 5
M  ZZI  40 1
M  ZZM  41 5
M  ZZI  41 1
M  ZZM  42 5
M  ZZI  42 1
M  ZZM  43 5
M  ZZI  43 1
M  ZZM  44 5
M  ZZI  44 1
M  ZZM  45 5
M  ZZI  45 1
M  ZZM  46 28
M  ZZI  46 11
M  ZZM  47 5
M  ZZI  47 1
M  ZZM  48 5
M  ZZI  48 1
M  ZZM  49 5
M  ZZI  49 1
M  ZZM  50 5
M  ZZI  50 1
M  ZZM  51 5
M  ZZI  51 1
M  ZZM  52 5
M  ZZI  52 1
M  ZZM  53 5
M  ZZI  53 1
M  ZZM  54 5
M  ZZI  54 1
M  ZZM  55 5
M  ZZI  55 1
M  ZZM  56 5
M  ZZI  56 1
M  ZZM  57 5
M  ZZI  57 1
M  ZZM  58 5
M  ZZI  58 1
M  ZZM  59 5
M  ZZI  59 1
M  ZZM  60 21
M  ZZI  60 20
M  ZZM  61 5
M  ZZI  61 1
M  ZZM  62 5
M  ZZI  62 1
M  ZZM  63 5
M  ZZI  63 1
M  ZZM  64 5
M  ZZI  64 1
M  ZZM  65 5
M  ZZI  65 1
M  END
> <IX>
1

> <NAME>
VHL_5LLI_5.pdb

> <Score>
-13.959348

> <Natom>
65

> <Nflex>
8

> <Hbond>
-4.196345

> <Hphob>
-6.651775

> <VwInt>
-24.894435

> <Dsolv>
18.579176

> <SolEl>
7.934708

> <Eintl>
3.395401

> <RecConf>
ND

> <projPath>
VHL_maps/

> <NAME_>
VHL_5LLI_5.pdb

$$$$
