VHL_5T8E_19.pdb
  MOLSOFT 04032206443D

 75 78  0  0  1  0  0  0  0  0999 V2000
   14.0486    2.3102    1.5839 Br  0  0  0  0  0  0  0  0  0  0  0  0
   14.4076    2.6058   -0.2579 C   0  0  0  0  0  0  0  0  0  0  0  0
   13.4962    2.1884   -1.2089 C   0  0  0  0  0  0  0  0  0  0  0  0
   13.7759    2.3739   -2.5498 C   0  0  0  0  0  0  0  0  0  0  0  0
   14.9724    2.9593   -2.9710 C   0  0  0  0  0  0  0  0  0  0  0  0
   15.3206    3.1049   -4.4432 C   0  0  1  0  0  0  0  0  0  0  0  0
   15.1436    1.8258   -5.1315 N   0  0  0  0  0  0  0  0  0  0  0  0
   13.9843    1.3916   -5.7490 C   0  0  0  0  0  0  0  0  0  0  0  0
   13.0187    2.1058   -5.9616 O   0  0  0  0  0  0  0  0  0  0  0  0
   14.0092   -0.0452   -6.2657 C   0  0  2  0  0  0  0  0  0  0  0  0
   14.9886   -0.9135   -5.6201 N   0  0  0  0  0  0  0  0  0  0  0  0
   14.7125   -1.5036   -4.3861 C   0  0  0  0  0  0  0  0  0  0  0  0
   13.7007   -1.2247   -3.7575 O   0  0  0  0  0  0  0  0  0  0  0  0
   15.7483   -2.4863   -3.8389 C   0  0  2  0  0  0  0  0  0  0  0  0
   15.0691   -3.6061   -3.0086 C   0  0  0  0  0  0  0  0  0  0  0  0
   14.8337   -3.2413   -1.5400 C   0  0  0  0  0  0  0  0  0  0  0  0
   15.8635   -4.9086   -3.0817 C   0  0  0  0  0  0  0  0  0  0  0  0
   16.7734   -1.7147   -3.0720 C   0  0  0  0  0  0  0  0  0  0  0  0
   17.9869   -2.3111   -2.9227 O   0  0  0  0  0  0  0  0  0  0  0  0
   18.8248   -1.4751   -2.1797 N   0  0  0  0  0  0  0  0  0  0  0  0
   18.1017   -0.3828   -1.9147 C   0  0  0  0  0  0  0  0  0  0  0  0
   18.6956    0.7429   -1.1631 C   0  0  0  0  0  0  0  0  0  0  0  0
   16.7972   -0.4926   -2.4412 C   0  0  0  0  0  0  0  0  0  0  0  0
   16.1000   -1.2071   -6.5143 C   0  0  0  0  0  0  0  0  0  0  0  0
   15.9072   -0.2754   -7.7037 C   0  0  1  0  0  0  0  0  0  0  0  0
   16.3663   -0.8499   -8.9295 O   0  0  0  0  0  0  0  0  0  0  0  0
   14.4063   -0.0807   -7.7266 C   0  0  0  0  0  0  0  0  0  0  0  0
   14.6152    4.3360   -5.0441 C   0  0  0  0  0  0  0  0  0  0  0  0
   14.9858    4.6386   -6.4896 C   0  0  0  0  0  0  0  0  0  0  0  0
   15.7854    3.9405   -7.0993 O   0  0  0  0  0  0  0  0  0  0  0  0
   14.3722    5.7593   -7.0657 N   0  0  0  0  0  0  0  0  0  0  0  0
   13.4164    6.6443   -6.3926 C   0  0  0  0  0  0  0  0  0  0  0  0
   13.7930    8.1076   -6.5656 C   0  0  0  0  0  0  0  0  0  0  0  0
   13.9630    8.4478   -8.0384 C   0  0  0  0  0  0  0  0  0  0  0  0
   14.9658    7.5117   -8.6968 C   0  0  0  0  0  0  0  0  0  0  0  0
   14.5884    6.0520   -8.4811 C   0  0  0  0  0  0  0  0  0  0  0  0
   15.8605    3.4015   -1.9907 C   0  0  0  0  0  0  0  0  0  0  0  0
   15.5827    3.2263   -0.6445 C   0  0  0  0  0  0  0  0  0  0  0  0
   12.5685    1.7064   -0.9171 H   0  0  0  0  0  0  0  0  0  0  0  0
   13.0477    2.0261   -3.2722 H   0  0  0  0  0  0  0  0  0  0  0  0
   16.4003    3.2805   -4.5139 H   0  0  0  0  0  0  0  0  0  0  0  0
   15.8865    1.1456   -5.0187 H   0  0  0  0  0  0  0  0  0  0  0  0
   13.0045   -0.4596   -6.1169 H   0  0  0  0  0  0  0  0  0  0  0  0
   16.2392   -2.9592   -4.6942 H   0  0  0  0  0  0  0  0  0  0  0  0
   14.0913   -3.8190   -3.4538 H   0  0  0  0  0  0  0  0  0  0  0  0
   15.7704   -3.0839   -0.9971 H   0  0  0  0  0  0  0  0  0  0  0  0
   14.3149   -4.0524   -1.0273 H   0  0  0  0  0  0  0  0  0  0  0  0
   14.2218   -2.3405   -1.4372 H   0  0  0  0  0  0  0  0  0  0  0  0
   15.3347   -5.7158   -2.5659 H   0  0  0  0  0  0  0  0  0  0  0  0
   16.8470   -4.8062   -2.6175 H   0  0  0  0  0  0  0  0  0  0  0  0
   16.0109   -5.2264   -4.1182 H   0  0  0  0  0  0  0  0  0  0  0  0
   18.7525    1.6347   -1.7940 H   0  0  0  0  0  0  0  0  0  0  0  0
   19.7094    0.5079   -0.8235 H   0  0  0  0  0  0  0  0  0  0  0  0
   18.0916    0.9800   -0.2826 H   0  0  0  0  0  0  0  0  0  0  0  0
   15.9885    0.2177   -2.3672 H   0  0  0  0  0  0  0  0  0  0  0  0
   17.0563   -1.0422   -6.0079 H   0  0  0  0  0  0  0  0  0  0  0  0
   16.0507   -2.2600   -6.8141 H   0  0  0  0  0  0  0  0  0  0  0  0
   16.4145    0.6833   -7.5471 H   0  0  0  0  0  0  0  0  0  0  0  0
   17.3402   -0.8172   -8.8853 H   0  0  0  0  0  0  0  0  0  0  0  0
   13.9388   -0.9549   -8.1789 H   0  0  0  0  0  0  0  0  0  0  0  0
   14.1058    0.8025   -8.3004 H   0  0  0  0  0  0  0  0  0  0  0  0
   13.5298    4.2330   -4.9678 H   0  0  0  0  0  0  0  0  0  0  0  0
   14.8910    5.2129   -4.4476 H   0  0  0  0  0  0  0  0  0  0  0  0
   12.4392    6.4713   -6.8496 H   0  0  0  0  0  0  0  0  0  0  0  0
   13.3212    6.4166   -5.3300 H   0  0  0  0  0  0  0  0  0  0  0  0
   13.0232    8.7470   -6.1228 H   0  0  0  0  0  0  0  0  0  0  0  0
   14.7281    8.3129   -6.0333 H   0  0  0  0  0  0  0  0  0  0  0  0
   12.9972    8.3633   -8.5472 H   0  0  0  0  0  0  0  0  0  0  0  0
   14.2933    9.4851   -8.1462 H   0  0  0  0  0  0  0  0  0  0  0  0
   15.0245    7.7305   -9.7661 H   0  0  0  0  0  0  0  0  0  0  0  0
   15.9607    7.6962   -8.2771 H   0  0  0  0  0  0  0  0  0  0  0  0
   15.3596    5.4007   -8.9021 H   0  0  0  0  0  0  0  0  0  0  0  0
   13.6554    5.8212   -9.0078 H   0  0  0  0  0  0  0  0  0  0  0  0
   16.7960    3.8761   -2.2724 H   0  0  0  0  0  0  0  0  0  0  0  0
   16.2986    3.5649    0.0983 H   0  0  0  0  0  0  0  0  0  0  0  0
  2  1  1  0  0  0  0
  2  3  1  0  0  0  0
  2 38  2  0  0  0  0
  3 39  1  0  0  0  0
  3  4  2  0  0  0  0
  4 40  1  0  0  0  0
  4  5  1  0  0  0  0
  5 37  2  0  0  0  0
  6  5  1  0  0  0  0
  6 41  1  0  0  0  0
  6 28  1  0  0  0  0
  6  7  1  0  0  0  0
  7 42  1  0  0  0  0
  7  8  1  0  0  0  0
  8  9  2  0  0  0  0
 10  8  1  0  0  0  0
 10 43  1  0  0  0  0
 10 27  1  0  0  0  0
 10 11  1  0  0  0  0
 11 24  1  0  0  0  0
 11 12  1  0  0  0  0
 12 13  2  0  0  0  0
 14 12  1  0  0  0  0
 14 44  1  0  0  0  0
 14 15  1  0  0  0  0
 14 18  1  0  0  0  0
 15 45  1  0  0  0  0
 15 17  1  0  0  0  0
 15 16  1  0  0  0  0
 16 46  1  0  0  0  0
 16 47  1  0  0  0  0
 16 48  1  0  0  0  0
 17 49  1  0  0  0  0
 17 50  1  0  0  0  0
 17 51  1  0  0  0  0
 18 23  2  0  0  0  0
 18 19  1  0  0  0  0
 19 20  1  0  0  0  0
 20 21  2  0  0  0  0
 21 23  1  0  0  0  0
 21 22  1  0  0  0  0
 22 52  1  0  0  0  0
 22 53  1  0  0  0  0
 22 54  1  0  0  0  0
 23 55  1  0  0  0  0
 25 24  1  0  0  0  0
 24 56  1  0  0  0  0
 24 57  1  0  0  0  0
 25 27  1  0  0  0  0
 25 58  1  0  0  0  0
 25 26  1  0  0  0  0
 26 59  1  0  0  0  0
 27 60  1  0  0  0  0
 27 61  1  0  0  0  0
 28 62  1  0  0  0  0
 28 63  1  0  0  0  0
 28 29  1  0  0  0  0
 29 30  2  0  0  0  0
 29 31  1  0  0  0  0
 31 32  1  0  0  0  0
 31 36  1  0  0  0  0
 32 64  1  0  0  0  0
 32 65  1  0  0  0  0
 32 33  1  0  0  0  0
 33 66  1  0  0  0  0
 33 67  1  0  0  0  0
 33 34  1  0  0  0  0
 34 68  1  0  0  0  0
 34 69  1  0  0  0  0
 34 35  1  0  0  0  0
 35 70  1  0  0  0  0
 35 71  1  0  0  0  0
 35 36  1  0  0  0  0
 36 72  1  0  0  0  0
 36 73  1  0  0  0  0
 37 74  1  0  0  0  0
 37 38  1  0  0  0  0
 38 75  1  0  0  0  0
M  ZZC   1 &Br1
M  ZZC   2 c1
M  ZZC   3 c2
M  ZZC   4 c3
M  ZZC   5 c4
M  ZZC   6 c5
M  ZZC   7 n1
M  ZZC   8 c6
M  ZZC   9 o1
M  ZZC  10 c7
M  ZZC  11 n2
M  ZZC  12 c8
M  ZZC  13 o2
M  ZZC  14 c9
M  ZZC  15 c10
M  ZZC  16 c11
M  ZZC  17 c12
M  ZZC  18 c13
M  ZZC  19 o3
M  ZZC  20 n3
M  ZZC  21 c14
M  ZZC  22 c15
M  ZZC  23 c16
M  ZZC  24 c17
M  ZZC  25 c18
M  ZZC  26 o4
M  ZZC  27 c19
M  ZZC  28 c20
M  ZZC  29 c21
M  ZZC  30 o5
M  ZZC  31 n4
M  ZZC  32 c22
M  ZZC  33 c23
M  ZZC  34 c24
M  ZZC  35 c25
M  ZZC  36 c26
M  ZZC  37 c27
M  ZZC  38 c28
M  ZZC  39 h21
M  ZZC  40 h31
M  ZZC  41 h51
M  ZZC  42 h11
M  ZZC  43 h71
M  ZZC  44 h91
M  ZZC  45 h101
M  ZZC  46 h111
M  ZZC  47 h112
M  ZZC  48 h113
M  ZZC  49 h121
M  ZZC  50 h122
M  ZZC  51 h123
M  ZZC  52 h151
M  ZZC  53 h152
M  ZZC  54 h153
M  ZZC  55 h161
M  ZZC  56 h171
M  ZZC  57 h172
M  ZZC  58 h181
M  ZZC  59 h41
M  ZZC  60 h191
M  ZZC  61 h192
M  ZZC  62 h201
M  ZZC  63 h202
M  ZZC  64 h221
M  ZZC  65 h222
M  ZZC  66 h231
M  ZZC  67 h232
M  ZZC  68 h241
M  ZZC  69 h242
M  ZZC  70 h251
M  ZZC  71 h252
M  ZZC  72 h261
M  ZZC  73 h262
M  ZZC  74 h271
M  ZZC  75 h281
M  ZZM   1 13
M  ZZI   1 95
M  ZZM   2 37
M  ZZI   2 124
M  ZZM   3 37
M  ZZI   3 125
M  ZZM   4 37
M  ZZI   4 125
M  ZZM   5 37
M  ZZI   5 124
M  ZZM   6 1
M  ZZI   6 113
M  ZZM   7 10
M  ZZI   7 211
M  ZZM   8 3
M  ZZI   8 121
M  ZZM   9 7
M  ZZI   9 81
M  ZZM  10 1
M  ZZI  10 113
M  ZZM  11 10
M  ZZI  11 192
M  ZZM  12 3
M  ZZI  12 121
M  ZZM  13 7
M  ZZI  13 81
M  ZZM  14 1
M  ZZI  14 113
M  ZZM  15 1
M  ZZI  15 113
M  ZZM  16 1
M  ZZI  16 111
M  ZZM  17 1
M  ZZI  17 111
M  ZZM  18 63
M  ZZI  18 104
M  ZZM  19 59
M  ZZI  19 56
M  ZZM  20 65
M  ZZI  20 207
M  ZZM  21 64
M  ZZI  21 105
M  ZZM  22 1
M  ZZI  22 111
M  ZZM  23 64
M  ZZI  23 105
M  ZZM  24 1
M  ZZI  24 112
M  ZZM  25 1
M  ZZI  25 113
M  ZZM  26 6
M  ZZI  26 60
M  ZZM  27 1
M  ZZI  27 112
M  ZZM  28 1
M  ZZI  28 112
M  ZZM  29 3
M  ZZI  29 121
M  ZZM  30 7
M  ZZI  30 81
M  ZZM  31 10
M  ZZI  31 192
M  ZZM  32 1
M  ZZI  32 112
M  ZZM  33 1
M  ZZI  33 112
M  ZZM  34 1
M  ZZI  34 112
M  ZZM  35 1
M  ZZI  35 112
M  ZZM  36 1
M  ZZI  36 112
M  ZZM  37 37
M  ZZI  37 125
M  ZZM  38 37
M  ZZI  38 125
M  ZZM  39 5
M  ZZI  39 1
M  ZZM  40 5
M  ZZI  40 1
M  ZZM  41 5
M  ZZI  41 1
M  ZZM  42 28
M  ZZI  42 11
M  ZZM  43 5
M  ZZI  43 1
M  ZZM  44 5
M  ZZI  44 1
M  ZZM  45 5
M  ZZI  45 1
M  ZZM  46 5
M  ZZI  46 1
M  ZZM  47 5
M  ZZI  47 1
M  ZZM  48 5
M  ZZI  48 1
M  ZZM  49 5
M  ZZI  49 1
M  ZZM  50 5
M  ZZI  50 1
M  ZZM  51 5
M  ZZI  51 1
M  ZZM  52 5
M  ZZI  52 1
M  ZZM  53 5
M  ZZI  53 1
M  ZZM  54 5
M  ZZI  54 1
M  ZZM  55 5
M  ZZI  55 1
M  ZZM  56 5
M  ZZI  56 1
M  ZZM  57 5
M  ZZI  57 1
M  ZZM  58 5
M  ZZI  58 1
M  ZZM  59 21
M  ZZI  59 20
M  ZZM  60 5
M  ZZI  60 1
M  ZZM  61 5
M  ZZI  61 1
M  ZZM  62 5
M  ZZI  62 1
M  ZZM  63 5
M  ZZI  63 1
M  ZZM  64 5
M  ZZI  64 1
M  ZZM  65 5
M  ZZI  65 1
M  ZZM  66 5
M  ZZI  66 1
M  ZZM  67 5
M  ZZI  67 1
M  ZZM  68 5
M  ZZI  68 1
M  ZZM  69 5
M  ZZI  69 1
M  ZZM  70 5
M  ZZI  70 1
M  ZZM  71 5
M  ZZI  71 1
M  ZZM  72 5
M  ZZI  72 1
M  ZZM  73 5
M  ZZI  73 1
M  ZZM  74 5
M  ZZI  74 1
M  ZZM  75 5
M  ZZI  75 1
M  END
> <IX>
1

> <NAME>
VHL_5T8E_19.pdb

> <Score>
-8.210813

> <Natom>
75

> <Nflex>
11

> <Hbond>
-4.688011

> <Hphob>
-7.358556

> <VwInt>
-26.438638

> <Dsolv>
20.533873

> <SolEl>
14.977834

> <Eintl>
5.221582

> <RecConf>
ND

> <projPath>
VHL_maps/

> <NAME_>
VHL_5T8E_19.pdb

$$$$
