VHL_4CI3_26.pdb
  MOLSOFT 04032206383D

 65 67  0  0  1  0  0  0  0  0999 V2000
   15.7990   -6.0932   -5.3601 O   0  0  0  0  0  0  0  0  0  0  0  0
   16.8852   -5.7538   -4.9238 C   0  0  0  0  0  0  0  0  0  0  0  0
   17.1320   -4.5849   -4.2299 N   0  0  0  0  0  0  0  0  0  0  0  0
   16.1337   -3.5335   -3.9713 C   0  0  1  0  0  0  0  0  0  0  0  0
   15.9212   -3.2957   -2.4456 C   0  0  0  0  0  0  0  0  0  0  0  0
   14.8193   -2.2690   -2.1573 C   0  0  0  0  0  0  0  0  0  0  0  0
   17.1989   -2.8123   -1.7441 C   0  0  0  0  0  0  0  0  0  0  0  0
   15.4705   -4.6157   -1.8103 C   0  0  0  0  0  0  0  0  0  0  0  0
   16.6264   -2.3147   -4.7801 C   0  0  0  0  0  0  0  0  0  0  0  0
   17.8218   -2.0524   -4.8497 O   0  0  0  0  0  0  0  0  0  0  0  0
   15.6714   -1.5517   -5.4595 N   0  0  0  0  0  0  0  0  0  0  0  0
   16.0614   -0.6450   -6.5293 C   0  0  2  0  0  0  0  0  0  0  0  0
   16.4428    0.7493   -6.0242 C   0  0  0  0  0  0  0  0  0  0  0  0
   15.9184    1.2722   -5.0501 O   0  0  0  0  0  0  0  0  0  0  0  0
   17.3776    1.3811   -6.8233 N   0  0  0  0  0  0  0  0  0  0  0  0
   17.8274    2.7375   -6.5564 C   0  0  0  0  0  0  0  0  0  0  0  0
   19.2385    3.0171   -7.0163 C   0  0  0  0  0  0  0  0  0  0  0  0
   19.6532    4.3219   -7.2748 C   0  0  0  0  0  0  0  0  0  0  0  0
   20.9629    4.6002   -7.6412 C   0  0  0  0  0  0  0  0  0  0  0  0
   21.8951    3.5767   -7.7573 C   0  0  0  0  0  0  0  0  0  0  0  0
   23.2797    3.8369   -8.1172 C   0  0  0  0  0  0  0  0  0  0  0  0
   24.3492    4.2539   -7.3377 C   0  0  0  0  0  0  0  0  0  0  0  0
   24.3209    4.5829   -5.8947 C   0  0  0  0  0  0  0  0  0  0  0  0
   25.5578    4.3354   -8.0000 N   0  0  0  0  0  0  0  0  0  0  0  0
   25.3939    4.0058   -9.2614 C   0  0  0  0  0  0  0  0  0  0  0  0
   23.8073    3.5910   -9.7337 S   0  0  0  0  0  0  0  0  0  0  0  0
   21.4826    2.2796   -7.4978 C   0  0  0  0  0  0  0  0  0  0  0  0
   20.1819    2.0041   -7.1297 C   0  0  0  0  0  0  0  0  0  0  0  0
   14.8234   -0.5779   -7.4094 C   0  0  0  0  0  0  0  0  0  0  0  0
   13.6727   -0.6963   -6.4213 C   0  0  1  0  0  0  0  0  0  0  0  0
   12.5288   -1.3107   -7.0086 O   0  0  0  0  0  0  0  0  0  0  0  0
   14.2250   -1.5863   -5.3211 C   0  0  0  0  0  0  0  0  0  0  0  0
   18.0956   -6.6305   -5.0896 C   0  0  0  0  0  0  0  0  0  0  0  0
   18.0936   -4.3860   -3.9810 H   0  0  0  0  0  0  0  0  0  0  0  0
   15.1925   -3.8833   -4.3976 H   0  0  0  0  0  0  0  0  0  0  0  0
   13.8699   -2.5618   -2.6160 H   0  0  0  0  0  0  0  0  0  0  0  0
   15.0937   -1.2716   -2.5116 H   0  0  0  0  0  0  0  0  0  0  0  0
   14.6326   -2.1746   -1.0824 H   0  0  0  0  0  0  0  0  0  0  0  0
   17.5411   -1.8580   -2.1413 H   0  0  0  0  0  0  0  0  0  0  0  0
   18.0205   -3.5234   -1.8781 H   0  0  0  0  0  0  0  0  0  0  0  0
   17.0509   -2.6882   -0.6670 H   0  0  0  0  0  0  0  0  0  0  0  0
   16.2497   -5.3772   -1.8713 H   0  0  0  0  0  0  0  0  0  0  0  0
   14.5830   -5.0197   -2.3077 H   0  0  0  0  0  0  0  0  0  0  0  0
   15.2193   -4.4784   -0.7551 H   0  0  0  0  0  0  0  0  0  0  0  0
   16.9090   -1.0690   -7.0777 H   0  0  0  0  0  0  0  0  0  0  0  0
   17.7724    0.8799   -7.6143 H   0  0  0  0  0  0  0  0  0  0  0  0
   17.1271    3.3996   -7.0773 H   0  0  0  0  0  0  0  0  0  0  0  0
   17.7492    2.9404   -5.4830 H   0  0  0  0  0  0  0  0  0  0  0  0
   18.9491    5.1441   -7.1847 H   0  0  0  0  0  0  0  0  0  0  0  0
   21.2532    5.6285   -7.8353 H   0  0  0  0  0  0  0  0  0  0  0  0
   25.2977    4.9395   -5.5558 H   0  0  0  0  0  0  0  0  0  0  0  0
   24.0569    3.7065   -5.2956 H   0  0  0  0  0  0  0  0  0  0  0  0
   23.5799    5.3593   -5.6911 H   0  0  0  0  0  0  0  0  0  0  0  0
   26.2112    3.9983   -9.9682 H   0  0  0  0  0  0  0  0  0  0  0  0
   22.1814    1.4568   -7.5833 H   0  0  0  0  0  0  0  0  0  0  0  0
   19.9128    0.9736   -6.9301 H   0  0  0  0  0  0  0  0  0  0  0  0
   14.7563    0.3350   -8.0106 H   0  0  0  0  0  0  0  0  0  0  0  0
   14.8116   -1.4258   -8.1028 H   0  0  0  0  0  0  0  0  0  0  0  0
   13.3824    0.2827   -6.0230 H   0  0  0  0  0  0  0  0  0  0  0  0
   12.1818   -0.7158   -7.6978 H   0  0  0  0  0  0  0  0  0  0  0  0
   13.8495   -2.6098   -5.3639 H   0  0  0  0  0  0  0  0  0  0  0  0
   13.9466   -1.1686   -4.3539 H   0  0  0  0  0  0  0  0  0  0  0  0
   17.9692   -7.2618   -5.9744 H   0  0  0  0  0  0  0  0  0  0  0  0
   18.1971   -7.2684   -4.2087 H   0  0  0  0  0  0  0  0  0  0  0  0
   19.0011   -6.0307   -5.2212 H   0  0  0  0  0  0  0  0  0  0  0  0
  1  2  2  0  0  0  0
  2  3  1  0  0  0  0
  2 33  1  0  0  0  0
  4  3  1  0  0  0  0
  3 34  1  0  0  0  0
  4  5  1  0  0  0  0
  4 35  1  0  0  0  0
  4  9  1  0  0  0  0
  5  6  1  0  0  0  0
  5  7  1  0  0  0  0
  5  8  1  0  0  0  0
  6 36  1  0  0  0  0
  6 37  1  0  0  0  0
  6 38  1  0  0  0  0
  7 39  1  0  0  0  0
  7 40  1  0  0  0  0
  7 41  1  0  0  0  0
  8 42  1  0  0  0  0
  8 43  1  0  0  0  0
  8 44  1  0  0  0  0
  9 10  2  0  0  0  0
  9 11  1  0  0  0  0
 11 32  1  0  0  0  0
 12 11  1  0  0  0  0
 12 29  1  0  0  0  0
 12 45  1  0  0  0  0
 12 13  1  0  0  0  0
 13 14  2  0  0  0  0
 13 15  1  0  0  0  0
 15 46  1  0  0  0  0
 15 16  1  0  0  0  0
 16 47  1  0  0  0  0
 16 48  1  0  0  0  0
 16 17  1  0  0  0  0
 17 18  1  0  0  0  0
 17 28  2  0  0  0  0
 18 49  1  0  0  0  0
 18 19  2  0  0  0  0
 19 50  1  0  0  0  0
 19 20  1  0  0  0  0
 20 27  2  0  0  0  0
 20 21  1  0  0  0  0
 21 22  2  0  0  0  0
 21 26  1  0  0  0  0
 22 23  1  0  0  0  0
 22 24  1  0  0  0  0
 23 51  1  0  0  0  0
 23 52  1  0  0  0  0
 23 53  1  0  0  0  0
 24 25  2  0  0  0  0
 25 54  1  0  0  0  0
 25 26  1  0  0  0  0
 27 55  1  0  0  0  0
 27 28  1  0  0  0  0
 28 56  1  0  0  0  0
 30 29  1  0  0  0  0
 29 57  1  0  0  0  0
 29 58  1  0  0  0  0
 30 32  1  0  0  0  0
 30 59  1  0  0  0  0
 30 31  1  0  0  0  0
 31 60  1  0  0  0  0
 32 61  1  0  0  0  0
 32 62  1  0  0  0  0
 33 63  1  0  0  0  0
 33 64  1  0  0  0  0
 33 65  1  0  0  0  0
M  ZZC   1 o1
M  ZZC   2 c1
M  ZZC   3 n1
M  ZZC   4 c2
M  ZZC   5 c3
M  ZZC   6 c4
M  ZZC   7 c5
M  ZZC   8 c6
M  ZZC   9 c7
M  ZZC  10 o2
M  ZZC  11 n2
M  ZZC  12 c8
M  ZZC  13 c9
M  ZZC  14 o3
M  ZZC  15 n3
M  ZZC  16 c10
M  ZZC  17 c11
M  ZZC  18 c12
M  ZZC  19 c13
M  ZZC  20 c14
M  ZZC  21 c15
M  ZZC  22 c16
M  ZZC  23 c17
M  ZZC  24 n4
M  ZZC  25 c18
M  ZZC  26 s1
M  ZZC  27 c19
M  ZZC  28 c20
M  ZZC  29 c21
M  ZZC  30 c22
M  ZZC  31 o4
M  ZZC  32 c23
M  ZZC  33 c24
M  ZZC  34 h11
M  ZZC  35 h21
M  ZZC  36 h41
M  ZZC  37 h42
M  ZZC  38 h43
M  ZZC  39 h51
M  ZZC  40 h52
M  ZZC  41 h53
M  ZZC  42 h61
M  ZZC  43 h62
M  ZZC  44 h63
M  ZZC  45 h81
M  ZZC  46 h31
M  ZZC  47 h101
M  ZZC  48 h102
M  ZZC  49 h121
M  ZZC  50 h131
M  ZZC  51 h171
M  ZZC  52 h172
M  ZZC  53 h173
M  ZZC  54 h181
M  ZZC  55 h191
M  ZZC  56 h201
M  ZZC  57 h211
M  ZZC  58 h212
M  ZZC  59 h221
M  ZZC  60 h01
M  ZZC  61 h231
M  ZZC  62 h232
M  ZZC  63 h241
M  ZZC  64 h242
M  ZZC  65 h243
M  ZZM   1 7
M  ZZI   1 81
M  ZZM   2 3
M  ZZI   2 121
M  ZZM   3 10
M  ZZI   3 211
M  ZZM   4 1
M  ZZI   4 113
M  ZZM   5 1
M  ZZI   5 110
M  ZZM   6 1
M  ZZI   6 111
M  ZZM   7 1
M  ZZI   7 111
M  ZZM   8 1
M  ZZI   8 111
M  ZZM   9 3
M  ZZI   9 121
M  ZZM  10 7
M  ZZI  10 81
M  ZZM  11 10
M  ZZI  11 192
M  ZZM  12 1
M  ZZI  12 113
M  ZZM  13 3
M  ZZI  13 121
M  ZZM  14 7
M  ZZI  14 81
M  ZZM  15 10
M  ZZI  15 211
M  ZZM  16 1
M  ZZI  16 112
M  ZZM  17 37
M  ZZI  17 124
M  ZZM  18 37
M  ZZI  18 125
M  ZZM  19 37
M  ZZI  19 125
M  ZZM  20 37
M  ZZI  20 124
M  ZZM  21 63
M  ZZI  21 104
M  ZZM  22 64
M  ZZI  22 105
M  ZZM  23 1
M  ZZI  23 111
M  ZZM  24 66
M  ZZI  24 222
M  ZZM  25 63
M  ZZI  25 104
M  ZZM  26 44
M  ZZI  26 248
M  ZZM  27 37
M  ZZI  27 125
M  ZZM  28 37
M  ZZI  28 125
M  ZZM  29 1
M  ZZI  29 112
M  ZZM  30 1
M  ZZI  30 113
M  ZZM  31 6
M  ZZI  31 60
M  ZZM  32 1
M  ZZI  32 112
M  ZZM  33 1
M  ZZI  33 111
M  ZZM  34 28
M  ZZI  34 11
M  ZZM  35 5
M  ZZI  35 1
M  ZZM  36 5
M  ZZI  36 1
M  ZZM  37 5
M  ZZI  37 1
M  ZZM  38 5
M  ZZI  38 1
M  ZZM  39 5
M  ZZI  39 1
M  ZZM  40 5
M  ZZI  40 1
M  ZZM  41 5
M  ZZI  41 1
M  ZZM  42 5
M  ZZI  42 1
M  ZZM  43 5
M  ZZI  43 1
M  ZZM  44 5
M  ZZI  44 1
M  ZZM  45 5
M  ZZI  45 1
M  ZZM  46 28
M  ZZI  46 11
M  ZZM  47 5
M  ZZI  47 1
M  ZZM  48 5
M  ZZI  48 1
M  ZZM  49 5
M  ZZI  49 1
M  ZZM  50 5
M  ZZI  50 1
M  ZZM  51 5
M  ZZI  51 1
M  ZZM  52 5
M  ZZI  52 1
M  ZZM  53 5
M  ZZI  53 1
M  ZZM  54 5
M  ZZI  54 1
M  ZZM  55 5
M  ZZI  55 1
M  ZZM  56 5
M  ZZI  56 1
M  ZZM  57 5
M  ZZI  57 1
M  ZZM  58 5
M  ZZI  58 1
M  ZZM  59 5
M  ZZI  59 1
M  ZZM  60 21
M  ZZI  60 20
M  ZZM  61 5
M  ZZI  61 1
M  ZZM  62 5
M  ZZI  62 1
M  ZZM  63 5
M  ZZI  63 1
M  ZZM  64 5
M  ZZI  64 1
M  ZZM  65 5
M  ZZI  65 1
M  END
> <IX>
1

> <NAME>
VHL_4CI3_26.pdb

> <Score>
-11.544719

> <Natom>
65

> <Nflex>
8

> <Hbond>
-4.953405

> <Hphob>
-6.469485

> <VwInt>
-27.83596

> <Dsolv>
16.773967

> <SolEl>
17.072641

> <Eintl>
7.51582

> <RecConf>
ND

> <projPath>
VHL_maps/

> <NAME_>
VHL_4CI3_26.pdb

$$$$
