VHL_3K6P_25.pdb
  MOLSOFT 04032206373D

 65 67  0  0  1  0  0  0  0  0999 V2000
   18.1019   -6.6486   -5.1041 C   0  0  0  0  0  0  0  0  0  0  0  0
   16.8916   -5.7690   -4.9498 C   0  0  0  0  0  0  0  0  0  0  0  0
   15.8062   -6.1186   -5.3799 O   0  0  0  0  0  0  0  0  0  0  0  0
   17.1383   -4.5962   -4.2632 N   0  0  0  0  0  0  0  0  0  0  0  0
   16.1341   -3.5525   -3.9987 C   0  0  1  0  0  0  0  0  0  0  0  0
   15.9041   -3.3418   -2.4722 C   0  0  0  0  0  0  0  0  0  0  0  0
   17.1740   -2.8719   -1.7481 C   0  0  0  0  0  0  0  0  0  0  0  0
   15.4436   -4.6738   -1.8688 C   0  0  0  0  0  0  0  0  0  0  0  0
   14.8005   -2.3192   -2.1766 C   0  0  0  0  0  0  0  0  0  0  0  0
   16.6266   -2.3206   -4.7875 C   0  0  0  0  0  0  0  0  0  0  0  0
   17.8215   -2.0538   -4.8480 O   0  0  0  0  0  0  0  0  0  0  0  0
   15.6726   -1.5529   -5.4634 N   0  0  0  0  0  0  0  0  0  0  0  0
   16.0641   -0.6434   -6.5301 C   0  0  2  0  0  0  0  0  0  0  0  0
   16.4451    0.7497   -6.0221 C   0  0  0  0  0  0  0  0  0  0  0  0
   15.9218    1.2702   -5.0462 O   0  0  0  0  0  0  0  0  0  0  0  0
   17.3777    1.3837   -6.8220 N   0  0  0  0  0  0  0  0  0  0  0  0
   17.8279    2.7395   -6.5531 C   0  0  0  0  0  0  0  0  0  0  0  0
   19.2386    3.0189   -7.0138 C   0  0  0  0  0  0  0  0  0  0  0  0
   20.1813    2.0053   -7.1291 C   0  0  0  0  0  0  0  0  0  0  0  0
   21.4820    2.2807   -7.4964 C   0  0  0  0  0  0  0  0  0  0  0  0
   21.8956    3.5780   -7.7523 C   0  0  0  0  0  0  0  0  0  0  0  0
   23.2813    3.8385   -8.1077 C   0  0  0  0  0  0  0  0  0  0  0  0
   24.3467    4.2599   -7.3249 C   0  0  0  0  0  0  0  0  0  0  0  0
   24.3121    4.5931   -5.8829 C   0  0  0  0  0  0  0  0  0  0  0  0
   25.5583    4.3397   -7.9822 N   0  0  0  0  0  0  0  0  0  0  0  0
   25.4001    4.0054   -9.2432 C   0  0  0  0  0  0  0  0  0  0  0  0
   23.8160    3.5870   -9.7208 S   0  0  0  0  0  0  0  0  0  0  0  0
   20.9640    4.6020   -7.6355 C   0  0  0  0  0  0  0  0  0  0  0  0
   19.6538    4.3239   -7.2704 C   0  0  0  0  0  0  0  0  0  0  0  0
   14.8270   -0.5746   -7.4113 C   0  0  0  0  0  0  0  0  0  0  0  0
   13.6749   -0.6939   -6.4247 C   0  0  1  0  0  0  0  0  0  0  0  0
   12.5328   -1.3102   -7.0135 O   0  0  0  0  0  0  0  0  0  0  0  0
   14.2264   -1.5830   -5.3231 C   0  0  0  0  0  0  0  0  0  0  0  0
   19.0089   -6.0505   -5.2337 H   0  0  0  0  0  0  0  0  0  0  0  0
   17.9797   -7.2839   -5.9865 H   0  0  0  0  0  0  0  0  0  0  0  0
   18.1978   -7.2816   -4.2189 H   0  0  0  0  0  0  0  0  0  0  0  0
   18.0998   -4.3947   -4.0130 H   0  0  0  0  0  0  0  0  0  0  0  0
   15.1982   -3.8997   -4.4374 H   0  0  0  0  0  0  0  0  0  0  0  0
   17.0048   -2.7709   -0.6712 H   0  0  0  0  0  0  0  0  0  0  0  0
   17.5157   -1.8991   -2.1149 H   0  0  0  0  0  0  0  0  0  0  0  0
   17.9943   -3.5764   -1.8732 H   0  0  0  0  0  0  0  0  0  0  0  0
   15.1905   -4.5589   -0.8117 H   0  0  0  0  0  0  0  0  0  0  0  0
   16.2167   -5.4402   -1.9457 H   0  0  0  0  0  0  0  0  0  0  0  0
   14.5548   -5.0602   -2.3777 H   0  0  0  0  0  0  0  0  0  0  0  0
   15.0804   -1.3154   -2.5078 H   0  0  0  0  0  0  0  0  0  0  0  0
   14.6012   -2.2459   -1.1024 H   0  0  0  0  0  0  0  0  0  0  0  0
   13.8566   -2.6016   -2.6527 H   0  0  0  0  0  0  0  0  0  0  0  0
   16.9122   -1.0662   -7.0787 H   0  0  0  0  0  0  0  0  0  0  0  0
   17.7721    0.8838   -7.6138 H   0  0  0  0  0  0  0  0  0  0  0  0
   17.1276    3.4027   -7.0727 H   0  0  0  0  0  0  0  0  0  0  0  0
   17.7504    2.9409   -5.4793 H   0  0  0  0  0  0  0  0  0  0  0  0
   19.9117    0.9747   -6.9312 H   0  0  0  0  0  0  0  0  0  0  0  0
   22.1803    1.4575   -7.5828 H   0  0  0  0  0  0  0  0  0  0  0  0
   25.2674    5.0111   -5.5527 H   0  0  0  0  0  0  0  0  0  0  0  0
   24.1171    3.6987   -5.2866 H   0  0  0  0  0  0  0  0  0  0  0  0
   23.5327    5.3300   -5.6685 H   0  0  0  0  0  0  0  0  0  0  0  0
   26.2205    3.9961   -9.9464 H   0  0  0  0  0  0  0  0  0  0  0  0
   21.2550    5.6306   -7.8268 H   0  0  0  0  0  0  0  0  0  0  0  0
   18.9504    5.1465   -7.1789 H   0  0  0  0  0  0  0  0  0  0  0  0
   14.7609    0.3395   -8.0109 H   0  0  0  0  0  0  0  0  0  0  0  0
   14.8158   -1.4213   -8.1063 H   0  0  0  0  0  0  0  0  0  0  0  0
   13.3827    0.2848   -6.0272 H   0  0  0  0  0  0  0  0  0  0  0  0
   12.1868   -0.7166   -7.7043 H   0  0  0  0  0  0  0  0  0  0  0  0
   13.8465   -2.6051   -5.3606 H   0  0  0  0  0  0  0  0  0  0  0  0
   13.9525   -1.1592   -4.3571 H   0  0  0  0  0  0  0  0  0  0  0  0
  1 34  1  0  0  0  0
  1 35  1  0  0  0  0
  1 36  1  0  0  0  0
  1  2  1  0  0  0  0
  2  3  2  0  0  0  0
  2  4  1  0  0  0  0
  4 37  1  0  0  0  0
  5  4  1  0  0  0  0
  5 38  1  0  0  0  0
  5  6  1  0  0  0  0
  5 10  1  0  0  0  0
  6  7  1  0  0  0  0
  6  8  1  0  0  0  0
  6  9  1  0  0  0  0
  7 39  1  0  0  0  0
  7 40  1  0  0  0  0
  7 41  1  0  0  0  0
  8 42  1  0  0  0  0
  8 43  1  0  0  0  0
  8 44  1  0  0  0  0
  9 45  1  0  0  0  0
  9 46  1  0  0  0  0
  9 47  1  0  0  0  0
 10 11  2  0  0  0  0
 10 12  1  0  0  0  0
 12 33  1  0  0  0  0
 13 12  1  0  0  0  0
 13 30  1  0  0  0  0
 13 48  1  0  0  0  0
 13 14  1  0  0  0  0
 14 15  2  0  0  0  0
 14 16  1  0  0  0  0
 16 49  1  0  0  0  0
 16 17  1  0  0  0  0
 17 50  1  0  0  0  0
 17 51  1  0  0  0  0
 17 18  1  0  0  0  0
 18 19  1  0  0  0  0
 18 29  2  0  0  0  0
 19 52  1  0  0  0  0
 19 20  2  0  0  0  0
 20 53  1  0  0  0  0
 20 21  1  0  0  0  0
 21 28  2  0  0  0  0
 21 22  1  0  0  0  0
 22 23  2  0  0  0  0
 22 27  1  0  0  0  0
 23 24  1  0  0  0  0
 23 25  1  0  0  0  0
 24 54  1  0  0  0  0
 24 55  1  0  0  0  0
 24 56  1  0  0  0  0
 25 26  2  0  0  0  0
 26 57  1  0  0  0  0
 26 27  1  0  0  0  0
 28 58  1  0  0  0  0
 28 29  1  0  0  0  0
 29 59  1  0  0  0  0
 31 30  1  0  0  0  0
 30 60  1  0  0  0  0
 30 61  1  0  0  0  0
 31 33  1  0  0  0  0
 31 62  1  0  0  0  0
 31 32  1  0  0  0  0
 32 63  1  0  0  0  0
 33 64  1  0  0  0  0
 33 65  1  0  0  0  0
M  ZZC   1 c1
M  ZZC   2 c2
M  ZZC   3 o1
M  ZZC   4 n1
M  ZZC   5 c3
M  ZZC   6 c4
M  ZZC   7 c5
M  ZZC   8 c6
M  ZZC   9 c7
M  ZZC  10 c8
M  ZZC  11 o2
M  ZZC  12 n2
M  ZZC  13 c9
M  ZZC  14 c10
M  ZZC  15 o3
M  ZZC  16 n3
M  ZZC  17 c11
M  ZZC  18 c12
M  ZZC  19 c13
M  ZZC  20 c14
M  ZZC  21 c15
M  ZZC  22 c16
M  ZZC  23 c17
M  ZZC  24 c18
M  ZZC  25 n4
M  ZZC  26 c19
M  ZZC  27 s1
M  ZZC  28 c20
M  ZZC  29 c21
M  ZZC  30 c22
M  ZZC  31 c23
M  ZZC  32 o4
M  ZZC  33 c24
M  ZZC  34 h11
M  ZZC  35 h12
M  ZZC  36 h13
M  ZZC  37 h01
M  ZZC  38 h31
M  ZZC  39 h51
M  ZZC  40 h52
M  ZZC  41 h53
M  ZZC  42 h61
M  ZZC  43 h62
M  ZZC  44 h63
M  ZZC  45 h71
M  ZZC  46 h72
M  ZZC  47 h73
M  ZZC  48 h91
M  ZZC  49 h02
M  ZZC  50 h111
M  ZZC  51 h112
M  ZZC  52 h131
M  ZZC  53 h141
M  ZZC  54 h181
M  ZZC  55 h182
M  ZZC  56 h183
M  ZZC  57 h191
M  ZZC  58 h201
M  ZZC  59 h211
M  ZZC  60 h221
M  ZZC  61 h222
M  ZZC  62 h231
M  ZZC  63 h41
M  ZZC  64 h241
M  ZZC  65 h242
M  ZZM   1 1
M  ZZI   1 111
M  ZZM   2 3
M  ZZI   2 121
M  ZZM   3 7
M  ZZI   3 81
M  ZZM   4 10
M  ZZI   4 211
M  ZZM   5 1
M  ZZI   5 113
M  ZZM   6 1
M  ZZI   6 110
M  ZZM   7 1
M  ZZI   7 111
M  ZZM   8 1
M  ZZI   8 111
M  ZZM   9 1
M  ZZI   9 111
M  ZZM  10 3
M  ZZI  10 121
M  ZZM  11 7
M  ZZI  11 81
M  ZZM  12 10
M  ZZI  12 192
M  ZZM  13 1
M  ZZI  13 113
M  ZZM  14 3
M  ZZI  14 121
M  ZZM  15 7
M  ZZI  15 81
M  ZZM  16 10
M  ZZI  16 211
M  ZZM  17 1
M  ZZI  17 112
M  ZZM  18 37
M  ZZI  18 124
M  ZZM  19 37
M  ZZI  19 125
M  ZZM  20 37
M  ZZI  20 125
M  ZZM  21 37
M  ZZI  21 124
M  ZZM  22 63
M  ZZI  22 104
M  ZZM  23 64
M  ZZI  23 105
M  ZZM  24 1
M  ZZI  24 111
M  ZZM  25 66
M  ZZI  25 222
M  ZZM  26 63
M  ZZI  26 104
M  ZZM  27 44
M  ZZI  27 248
M  ZZM  28 37
M  ZZI  28 125
M  ZZM  29 37
M  ZZI  29 125
M  ZZM  30 1
M  ZZI  30 112
M  ZZM  31 1
M  ZZI  31 113
M  ZZM  32 6
M  ZZI  32 60
M  ZZM  33 1
M  ZZI  33 112
M  ZZM  34 5
M  ZZI  34 1
M  ZZM  35 5
M  ZZI  35 1
M  ZZM  36 5
M  ZZI  36 1
M  ZZM  37 28
M  ZZI  37 11
M  ZZM  38 5
M  ZZI  38 1
M  ZZM  39 5
M  ZZI  39 1
M  ZZM  40 5
M  ZZI  40 1
M  ZZM  41 5
M  ZZI  41 1
M  ZZM  42 5
M  ZZI  42 1
M  ZZM  43 5
M  ZZI  43 1
M  ZZM  44 5
M  ZZI  44 1
M  ZZM  45 5
M  ZZI  45 1
M  ZZM  46 5
M  ZZI  46 1
M  ZZM  47 5
M  ZZI  47 1
M  ZZM  48 5
M  ZZI  48 1
M  ZZM  49 28
M  ZZI  49 11
M  ZZM  50 5
M  ZZI  50 1
M  ZZM  51 5
M  ZZI  51 1
M  ZZM  52 5
M  ZZI  52 1
M  ZZM  53 5
M  ZZI  53 1
M  ZZM  54 5
M  ZZI  54 1
M  ZZM  55 5
M  ZZI  55 1
M  ZZM  56 5
M  ZZI  56 1
M  ZZM  57 5
M  ZZI  57 1
M  ZZM  58 5
M  ZZI  58 1
M  ZZM  59 5
M  ZZI  59 1
M  ZZM  60 5
M  ZZI  60 1
M  ZZM  61 5
M  ZZI  61 1
M  ZZM  62 5
M  ZZI  62 1
M  ZZM  63 21
M  ZZI  63 20
M  ZZM  64 5
M  ZZI  64 1
M  ZZM  65 5
M  ZZI  65 1
M  END
> <IX>
1

> <NAME>
VHL_3K6P_25.pdb

> <Score>
-11.695517

> <Natom>
65

> <Nflex>
8

> <Hbond>
-4.96515

> <Hphob>
-6.521941

> <VwInt>
-28.042596

> <Dsolv>
16.847408

> <SolEl>
17.004737

> <Eintl>
7.699876

> <RecConf>
ND

> <projPath>
VHL_maps/

> <NAME_>
VHL_3K6P_25.pdb

$$$$
