VHL_5EHR_13.pdb
  MOLSOFT 04032206393D

 68 70  0  0  1  0  0  0  0  0999 V2000
   18.3277    2.4408   -4.3456 C   0  0  0  0  0  0  0  0  0  0  0  0
   18.1260    1.0673   -4.9216 C   0  0  0  0  0  0  0  0  0  0  0  0
   19.0569    0.3868   -5.3269 O   0  0  0  0  0  0  0  0  0  0  0  0
   16.7975    0.6938   -4.9449 N   0  0  0  0  0  0  0  0  0  0  0  0
   16.3474   -0.5915   -5.4808 C   0  0  2  0  0  0  0  0  0  0  0  0
   15.5046   -0.4179   -6.7779 C   0  0  0  0  0  0  0  0  0  0  0  0
   14.1775    0.3337   -6.5603 C   0  0  0  0  0  0  0  0  0  0  0  0
   16.3082    0.3471   -7.8405 C   0  0  0  0  0  0  0  0  0  0  0  0
   15.1902   -1.8041   -7.3328 C   0  0  0  0  0  0  0  0  0  0  0  0
   15.5812   -1.2819   -4.3353 C   0  0  0  0  0  0  0  0  0  0  0  0
   14.6569   -0.7137   -3.7663 O   0  0  0  0  0  0  0  0  0  0  0  0
   16.0216   -2.5406   -3.9148 N   0  0  0  0  0  0  0  0  0  0  0  0
   15.4759   -3.1441   -2.7067 C   0  0  2  0  0  0  0  0  0  0  0  0
   15.9406   -2.3271   -1.4944 C   0  0  0  0  0  0  0  0  0  0  0  0
   16.9946   -1.7040   -1.4866 O   0  0  0  0  0  0  0  0  0  0  0  0
   15.1000   -2.4090   -0.3973 N   0  0  0  0  0  0  0  0  0  0  0  0
   15.4291   -1.7470    0.8580 C   0  0  1  0  0  0  0  0  0  0  0  0
   14.1659   -1.2977    1.5932 C   0  0  0  0  0  0  0  0  0  0  0  0
   16.3419   -2.6284    1.6890 C   0  0  0  0  0  0  0  0  0  0  0  0
   15.8666   -3.6826    2.4638 C   0  0  0  0  0  0  0  0  0  0  0  0
   16.7369   -4.5239    3.1378 C   0  0  0  0  0  0  0  0  0  0  0  0
   18.1168   -4.3434    3.0663 C   0  0  0  0  0  0  0  0  0  0  0  0
   19.0376   -5.2775    3.7130 C   0  0  0  0  0  0  0  0  0  0  0  0
   20.2344   -5.8324    3.2693 C   0  0  0  0  0  0  0  0  0  0  0  0
   20.9506   -5.5384    2.0063 C   0  0  0  0  0  0  0  0  0  0  0  0
   20.7766   -6.7993    4.0931 N   0  0  0  0  0  0  0  0  0  0  0  0
   20.0697   -6.8807    5.1977 C   0  0  0  0  0  0  0  0  0  0  0  0
   18.7038   -5.8634    5.2982 S   0  0  0  0  0  0  0  0  0  0  0  0
   18.5878   -3.2698    2.3189 C   0  0  0  0  0  0  0  0  0  0  0  0
   17.7191   -2.4355    1.6406 C   0  0  0  0  0  0  0  0  0  0  0  0
   16.0785   -4.5438   -2.6138 C   0  0  0  0  0  0  0  0  0  0  0  0
   16.8377   -4.7627   -3.9161 C   0  0  1  0  0  0  0  0  0  0  0  0
   16.0671   -5.5772   -4.7963 O   0  0  0  0  0  0  0  0  0  0  0  0
   17.0483   -3.3750   -4.5071 C   0  0  0  0  0  0  0  0  0  0  0  0
   17.7593    3.1746   -4.9253 H   0  0  0  0  0  0  0  0  0  0  0  0
   19.3889    2.7045   -4.3814 H   0  0  0  0  0  0  0  0  0  0  0  0
   17.9926    2.4574   -3.3041 H   0  0  0  0  0  0  0  0  0  0  0  0
   16.1034    1.3090   -4.5317 H   0  0  0  0  0  0  0  0  0  0  0  0
   17.2452   -1.1688   -5.7164 H   0  0  0  0  0  0  0  0  0  0  0  0
   13.4800   -0.2294   -5.9333 H   0  0  0  0  0  0  0  0  0  0  0  0
   13.6634    0.5092   -7.5111 H   0  0  0  0  0  0  0  0  0  0  0  0
   14.3325    1.3122   -6.0960 H   0  0  0  0  0  0  0  0  0  0  0  0
   16.5093    1.3794   -7.5389 H   0  0  0  0  0  0  0  0  0  0  0  0
   15.7703    0.3919   -8.7911 H   0  0  0  0  0  0  0  0  0  0  0  0
   17.2684   -0.1341   -8.0412 H   0  0  0  0  0  0  0  0  0  0  0  0
   14.6495   -1.7406   -8.2772 H   0  0  0  0  0  0  0  0  0  0  0  0
   14.5764   -2.3844   -6.6441 H   0  0  0  0  0  0  0  0  0  0  0  0
   16.1069   -2.3624   -7.5203 H   0  0  0  0  0  0  0  0  0  0  0  0
   14.3806   -3.1573   -2.7672 H   0  0  0  0  0  0  0  0  0  0  0  0
   14.2787   -3.0014   -0.4339 H   0  0  0  0  0  0  0  0  0  0  0  0
   15.9779   -0.8318    0.6081 H   0  0  0  0  0  0  0  0  0  0  0  0
   14.4237   -0.7650    2.5144 H   0  0  0  0  0  0  0  0  0  0  0  0
   13.5414   -2.1549    1.8634 H   0  0  0  0  0  0  0  0  0  0  0  0
   13.5498   -0.6213    0.9957 H   0  0  0  0  0  0  0  0  0  0  0  0
   14.8019   -3.8775    2.5294 H   0  0  0  0  0  0  0  0  0  0  0  0
   16.3163   -5.3541    3.6973 H   0  0  0  0  0  0  0  0  0  0  0  0
   21.6876   -6.3105    1.7702 H   0  0  0  0  0  0  0  0  0  0  0  0
   21.4839   -4.5864    2.0750 H   0  0  0  0  0  0  0  0  0  0  0  0
   20.2511   -5.4883    1.1733 H   0  0  0  0  0  0  0  0  0  0  0  0
   20.3263   -7.5577    5.9999 H   0  0  0  0  0  0  0  0  0  0  0  0
   19.6510   -3.0677    2.2446 H   0  0  0  0  0  0  0  0  0  0  0  0
   18.1365   -1.6285    1.0448 H   0  0  0  0  0  0  0  0  0  0  0  0
   16.7680   -4.6062   -1.7665 H   0  0  0  0  0  0  0  0  0  0  0  0
   15.2977   -5.2954   -2.4533 H   0  0  0  0  0  0  0  0  0  0  0  0
   17.7888   -5.2801   -3.7728 H   0  0  0  0  0  0  0  0  0  0  0  0
   15.9849   -6.4566   -4.3838 H   0  0  0  0  0  0  0  0  0  0  0  0
   16.9825   -3.3629   -5.5977 H   0  0  0  0  0  0  0  0  0  0  0  0
   18.0121   -2.9575   -4.1992 H   0  0  0  0  0  0  0  0  0  0  0  0
  1 35  1  0  0  0  0
  1 36  1  0  0  0  0
  1 37  1  0  0  0  0
  1  2  1  0  0  0  0
  2  3  2  0  0  0  0
  2  4  1  0  0  0  0
  4 38  1  0  0  0  0
  5  4  1  0  0  0  0
  5 39  1  0  0  0  0
  5  6  1  0  0  0  0
  5 10  1  0  0  0  0
  6  7  1  0  0  0  0
  6  8  1  0  0  0  0
  6  9  1  0  0  0  0
  7 40  1  0  0  0  0
  7 41  1  0  0  0  0
  7 42  1  0  0  0  0
  8 43  1  0  0  0  0
  8 44  1  0  0  0  0
  8 45  1  0  0  0  0
  9 46  1  0  0  0  0
  9 47  1  0  0  0  0
  9 48  1  0  0  0  0
 10 11  2  0  0  0  0
 10 12  1  0  0  0  0
 12 34  1  0  0  0  0
 13 12  1  0  0  0  0
 13 31  1  0  0  0  0
 13 49  1  0  0  0  0
 13 14  1  0  0  0  0
 14 15  2  0  0  0  0
 14 16  1  0  0  0  0
 16 50  1  0  0  0  0
 17 16  1  0  0  0  0
 17 51  1  0  0  0  0
 17 18  1  0  0  0  0
 17 19  1  0  0  0  0
 18 52  1  0  0  0  0
 18 53  1  0  0  0  0
 18 54  1  0  0  0  0
 19 20  1  0  0  0  0
 19 30  2  0  0  0  0
 20 55  1  0  0  0  0
 20 21  2  0  0  0  0
 21 56  1  0  0  0  0
 21 22  1  0  0  0  0
 22 29  2  0  0  0  0
 22 23  1  0  0  0  0
 23 24  2  0  0  0  0
 23 28  1  0  0  0  0
 24 25  1  0  0  0  0
 24 26  1  0  0  0  0
 25 57  1  0  0  0  0
 25 58  1  0  0  0  0
 25 59  1  0  0  0  0
 26 27  2  0  0  0  0
 27 60  1  0  0  0  0
 27 28  1  0  0  0  0
 29 61  1  0  0  0  0
 29 30  1  0  0  0  0
 30 62  1  0  0  0  0
 32 31  1  0  0  0  0
 31 63  1  0  0  0  0
 31 64  1  0  0  0  0
 32 34  1  0  0  0  0
 32 65  1  0  0  0  0
 32 33  1  0  0  0  0
 33 66  1  0  0  0  0
 34 67  1  0  0  0  0
 34 68  1  0  0  0  0
M  ZZC   1 c1
M  ZZC   2 c2
M  ZZC   3 o1
M  ZZC   4 n1
M  ZZC   5 c3
M  ZZC   6 c4
M  ZZC   7 c5
M  ZZC   8 c6
M  ZZC   9 c7
M  ZZC  10 c8
M  ZZC  11 o2
M  ZZC  12 n2
M  ZZC  13 c9
M  ZZC  14 c10
M  ZZC  15 o3
M  ZZC  16 n3
M  ZZC  17 c11
M  ZZC  18 c12
M  ZZC  19 c13
M  ZZC  20 c14
M  ZZC  21 c15
M  ZZC  22 c16
M  ZZC  23 c17
M  ZZC  24 c18
M  ZZC  25 c19
M  ZZC  26 n4
M  ZZC  27 c20
M  ZZC  28 s1
M  ZZC  29 c21
M  ZZC  30 c22
M  ZZC  31 c23
M  ZZC  32 c24
M  ZZC  33 o4
M  ZZC  34 c25
M  ZZC  35 h11
M  ZZC  36 h12
M  ZZC  37 h13
M  ZZC  38 h01
M  ZZC  39 h31
M  ZZC  40 h51
M  ZZC  41 h52
M  ZZC  42 h53
M  ZZC  43 h61
M  ZZC  44 h62
M  ZZC  45 h63
M  ZZC  46 h71
M  ZZC  47 h72
M  ZZC  48 h73
M  ZZC  49 h91
M  ZZC  50 h02
M  ZZC  51 h111
M  ZZC  52 h121
M  ZZC  53 h122
M  ZZC  54 h123
M  ZZC  55 h141
M  ZZC  56 h151
M  ZZC  57 h191
M  ZZC  58 h192
M  ZZC  59 h193
M  ZZC  60 h201
M  ZZC  61 h211
M  ZZC  62 h221
M  ZZC  63 h231
M  ZZC  64 h232
M  ZZC  65 h241
M  ZZC  66 h41
M  ZZC  67 h251
M  ZZC  68 h252
M  ZZM   1 1
M  ZZI   1 111
M  ZZM   2 3
M  ZZI   2 121
M  ZZM   3 7
M  ZZI   3 81
M  ZZM   4 10
M  ZZI   4 211
M  ZZM   5 1
M  ZZI   5 113
M  ZZM   6 1
M  ZZI   6 110
M  ZZM   7 1
M  ZZI   7 111
M  ZZM   8 1
M  ZZI   8 111
M  ZZM   9 1
M  ZZI   9 111
M  ZZM  10 3
M  ZZI  10 121
M  ZZM  11 7
M  ZZI  11 81
M  ZZM  12 10
M  ZZI  12 192
M  ZZM  13 1
M  ZZI  13 113
M  ZZM  14 3
M  ZZI  14 121
M  ZZM  15 7
M  ZZI  15 81
M  ZZM  16 10
M  ZZI  16 211
M  ZZM  17 1
M  ZZI  17 113
M  ZZM  18 1
M  ZZI  18 111
M  ZZM  19 37
M  ZZI  19 124
M  ZZM  20 37
M  ZZI  20 125
M  ZZM  21 37
M  ZZI  21 125
M  ZZM  22 37
M  ZZI  22 124
M  ZZM  23 63
M  ZZI  23 104
M  ZZM  24 64
M  ZZI  24 105
M  ZZM  25 1
M  ZZI  25 111
M  ZZM  26 66
M  ZZI  26 222
M  ZZM  27 63
M  ZZI  27 104
M  ZZM  28 44
M  ZZI  28 248
M  ZZM  29 37
M  ZZI  29 125
M  ZZM  30 37
M  ZZI  30 125
M  ZZM  31 1
M  ZZI  31 112
M  ZZM  32 1
M  ZZI  32 113
M  ZZM  33 6
M  ZZI  33 60
M  ZZM  34 1
M  ZZI  34 112
M  ZZM  35 5
M  ZZI  35 1
M  ZZM  36 5
M  ZZI  36 1
M  ZZM  37 5
M  ZZI  37 1
M  ZZM  38 28
M  ZZI  38 11
M  ZZM  39 5
M  ZZI  39 1
M  ZZM  40 5
M  ZZI  40 1
M  ZZM  41 5
M  ZZI  41 1
M  ZZM  42 5
M  ZZI  42 1
M  ZZM  43 5
M  ZZI  43 1
M  ZZM  44 5
M  ZZI  44 1
M  ZZM  45 5
M  ZZI  45 1
M  ZZM  46 5
M  ZZI  46 1
M  ZZM  47 5
M  ZZI  47 1
M  ZZM  48 5
M  ZZI  48 1
M  ZZM  49 5
M  ZZI  49 1
M  ZZM  50 28
M  ZZI  50 11
M  ZZM  51 5
M  ZZI  51 1
M  ZZM  52 5
M  ZZI  52 1
M  ZZM  53 5
M  ZZI  53 1
M  ZZM  54 5
M  ZZI  54 1
M  ZZM  55 5
M  ZZI  55 1
M  ZZM  56 5
M  ZZI  56 1
M  ZZM  57 5
M  ZZI  57 1
M  ZZM  58 5
M  ZZI  58 1
M  ZZM  59 5
M  ZZI  59 1
M  ZZM  60 5
M  ZZI  60 1
M  ZZM  61 5
M  ZZI  61 1
M  ZZM  62 5
M  ZZI  62 1
M  ZZM  63 5
M  ZZI  63 1
M  ZZM  64 5
M  ZZI  64 1
M  ZZM  65 5
M  ZZI  65 1
M  ZZM  66 21
M  ZZI  66 20
M  ZZM  67 5
M  ZZI  67 1
M  ZZM  68 5
M  ZZI  68 1
M  END
> <IX>
1

> <NAME>
VHL_5EHR_13.pdb

> <Score>
-8.923367

> <Natom>
68

> <Nflex>
8

> <Hbond>
-5.340631

> <Hphob>
-5.601478

> <VwInt>
-22.009081

> <Dsolv>
17.143119

> <SolEl>
11.958925

> <Eintl>
8.000452

> <RecConf>
ND

> <projPath>
VHL_maps/

> <NAME_>
VHL_5EHR_13.pdb

$$$$
