VHL_1ERR_17.pdb
  MOLSOFT 04032206373D

 68 70  0  0  1  0  0  0  0  0999 V2000
   15.8129   -6.2297   -5.4650 O   0  0  0  0  0  0  0  0  0  0  0  0
   16.8930   -5.9045   -5.0031 C   0  0  0  0  0  0  0  0  0  0  0  0
   17.1401   -4.7382   -4.3057 N   0  0  0  0  0  0  0  0  0  0  0  0
   16.1508   -3.6774   -4.0524 C   0  0  1  0  0  0  0  0  0  0  0  0
   15.8715   -3.4992   -2.5305 C   0  0  0  0  0  0  0  0  0  0  0  0
   17.1185   -3.0531   -1.7542 C   0  0  0  0  0  0  0  0  0  0  0  0
   14.7658   -2.4777   -2.2426 C   0  0  0  0  0  0  0  0  0  0  0  0
   15.3811   -4.8431   -1.9806 C   0  0  0  0  0  0  0  0  0  0  0  0
   16.7104   -2.4475   -4.7939 C   0  0  0  0  0  0  0  0  0  0  0  0
   17.9149   -2.2237   -4.8138 O   0  0  0  0  0  0  0  0  0  0  0  0
   15.8116   -1.6172   -5.4686 N   0  0  0  0  0  0  0  0  0  0  0  0
   16.2883   -0.6540   -6.4486 C   0  0  2  0  0  0  0  0  0  0  0  0
   16.7930    0.6283   -5.7824 C   0  0  0  0  0  0  0  0  0  0  0  0
   16.3931    1.0043   -4.6888 O   0  0  0  0  0  0  0  0  0  0  0  0
   17.7083    1.3249   -6.5553 N   0  0  0  0  0  0  0  0  0  0  0  0
   18.3350    2.5643   -6.1122 C   0  0  1  0  0  0  0  0  0  0  0  0
   19.7175    2.7110   -6.7532 C   0  0  0  0  0  0  0  0  0  0  0  0
   17.4281    3.7634   -6.3451 C   0  0  0  0  0  0  0  0  0  0  0  0
   16.4752    4.1073   -5.3872 C   0  0  0  0  0  0  0  0  0  0  0  0
   15.6102    5.1712   -5.5725 C   0  0  0  0  0  0  0  0  0  0  0  0
   15.6733    5.9391   -6.7274 C   0  0  0  0  0  0  0  0  0  0  0  0
   14.7554    7.0459   -6.9469 C   0  0  0  0  0  0  0  0  0  0  0  0
   13.8148    7.2383   -7.9473 C   0  0  0  0  0  0  0  0  0  0  0  0
   13.4893    6.2961   -9.0393 C   0  0  0  0  0  0  0  0  0  0  0  0
   13.1329    8.4363   -7.8871 N   0  0  0  0  0  0  0  0  0  0  0  0
   13.5475    9.1257   -6.8478 C   0  0  0  0  0  0  0  0  0  0  0  0
   14.7474    8.3939   -5.8801 S   0  0  0  0  0  0  0  0  0  0  0  0
   16.6237    5.6132   -7.6864 C   0  0  0  0  0  0  0  0  0  0  0  0
   17.4861    4.5466   -7.4983 C   0  0  0  0  0  0  0  0  0  0  0  0
   15.0826   -0.4069   -7.3436 C   0  0  0  0  0  0  0  0  0  0  0  0
   13.8927   -0.5755   -6.4106 C   0  0  1  0  0  0  0  0  0  0  0  0
   12.7466   -1.0840   -7.0908 O   0  0  0  0  0  0  0  0  0  0  0  0
   14.3631   -1.5848   -5.3771 C   0  0  0  0  0  0  0  0  0  0  0  0
   18.0958   -6.7972   -5.1302 C   0  0  0  0  0  0  0  0  0  0  0  0
   18.0997   -4.5497   -4.0396 H   0  0  0  0  0  0  0  0  0  0  0  0
   15.2218   -3.9855   -4.5307 H   0  0  0  0  0  0  0  0  0  0  0  0
   17.9439   -3.7496   -1.8818 H   0  0  0  0  0  0  0  0  0  0  0  0
   16.9187   -2.9891   -0.6797 H   0  0  0  0  0  0  0  0  0  0  0  0
   17.4677   -2.0677   -2.0779 H   0  0  0  0  0  0  0  0  0  0  0  0
   14.5354   -2.4287   -1.1740 H   0  0  0  0  0  0  0  0  0  0  0  0
   13.8514   -2.7061   -2.7968 H   0  0  0  0  0  0  0  0  0  0  0  0
   15.0652   -1.4694   -2.5474 H   0  0  0  0  0  0  0  0  0  0  0  0
   14.4969   -5.1998   -2.5186 H   0  0  0  0  0  0  0  0  0  0  0  0
   15.1076   -4.7580   -0.9269 H   0  0  0  0  0  0  0  0  0  0  0  0
   16.1448   -5.6183   -2.0651 H   0  0  0  0  0  0  0  0  0  0  0  0
   17.1112   -1.0929   -7.0192 H   0  0  0  0  0  0  0  0  0  0  0  0
   18.0154    0.9192   -7.4343 H   0  0  0  0  0  0  0  0  0  0  0  0
   18.4990    2.4728   -5.0321 H   0  0  0  0  0  0  0  0  0  0  0  0
   20.2271    3.6137   -6.4018 H   0  0  0  0  0  0  0  0  0  0  0  0
   19.6715    2.7537   -7.8438 H   0  0  0  0  0  0  0  0  0  0  0  0
   20.3507    1.8537   -6.5168 H   0  0  0  0  0  0  0  0  0  0  0  0
   16.3923    3.5324   -4.4697 H   0  0  0  0  0  0  0  0  0  0  0  0
   14.8725    5.3886   -4.8052 H   0  0  0  0  0  0  0  0  0  0  0  0
   14.2760    6.2979   -9.7975 H   0  0  0  0  0  0  0  0  0  0  0  0
   12.5514    6.5722   -9.5225 H   0  0  0  0  0  0  0  0  0  0  0  0
   13.3752    5.2759   -8.6608 H   0  0  0  0  0  0  0  0  0  0  0  0
   13.1575   10.1035   -6.6074 H   0  0  0  0  0  0  0  0  0  0  0  0
   16.7056    6.2016   -8.5966 H   0  0  0  0  0  0  0  0  0  0  0  0
   18.2135    4.3412   -8.2749 H   0  0  0  0  0  0  0  0  0  0  0  0
   15.0880    0.5760   -7.8262 H   0  0  0  0  0  0  0  0  0  0  0  0
   15.0448   -1.1574   -8.1415 H   0  0  0  0  0  0  0  0  0  0  0  0
   13.6261    0.3740   -5.9323 H   0  0  0  0  0  0  0  0  0  0  0  0
   12.4912   -0.4443   -7.7788 H   0  0  0  0  0  0  0  0  0  0  0  0
   13.9410   -2.5811   -5.5109 H   0  0  0  0  0  0  0  0  0  0  0  0
   14.0729   -1.2330   -4.3886 H   0  0  0  0  0  0  0  0  0  0  0  0
   18.0127   -7.4459   -6.0076 H   0  0  0  0  0  0  0  0  0  0  0  0
   18.1779   -7.4276   -4.2397 H   0  0  0  0  0  0  0  0  0  0  0  0
   18.9905   -6.1762   -5.2155 H   0  0  0  0  0  0  0  0  0  0  0  0
  1  2  2  0  0  0  0
  2  3  1  0  0  0  0
  2 34  1  0  0  0  0
  4  3  1  0  0  0  0
  3 35  1  0  0  0  0
  4  5  1  0  0  0  0
  4 36  1  0  0  0  0
  4  9  1  0  0  0  0
  5  6  1  0  0  0  0
  5  7  1  0  0  0  0
  5  8  1  0  0  0  0
  6 37  1  0  0  0  0
  6 38  1  0  0  0  0
  6 39  1  0  0  0  0
  7 40  1  0  0  0  0
  7 41  1  0  0  0  0
  7 42  1  0  0  0  0
  8 43  1  0  0  0  0
  8 44  1  0  0  0  0
  8 45  1  0  0  0  0
  9 10  2  0  0  0  0
  9 11  1  0  0  0  0
 11 33  1  0  0  0  0
 12 11  1  0  0  0  0
 12 30  1  0  0  0  0
 12 46  1  0  0  0  0
 12 13  1  0  0  0  0
 13 14  2  0  0  0  0
 13 15  1  0  0  0  0
 15 47  1  0  0  0  0
 16 15  1  0  0  0  0
 16 48  1  0  0  0  0
 16 17  1  0  0  0  0
 16 18  1  0  0  0  0
 17 49  1  0  0  0  0
 17 50  1  0  0  0  0
 17 51  1  0  0  0  0
 18 19  1  0  0  0  0
 18 29  2  0  0  0  0
 19 52  1  0  0  0  0
 19 20  2  0  0  0  0
 20 53  1  0  0  0  0
 20 21  1  0  0  0  0
 21 28  2  0  0  0  0
 21 22  1  0  0  0  0
 22 23  2  0  0  0  0
 22 27  1  0  0  0  0
 23 24  1  0  0  0  0
 23 25  1  0  0  0  0
 24 54  1  0  0  0  0
 24 55  1  0  0  0  0
 24 56  1  0  0  0  0
 25 26  2  0  0  0  0
 26 57  1  0  0  0  0
 26 27  1  0  0  0  0
 28 58  1  0  0  0  0
 28 29  1  0  0  0  0
 29 59  1  0  0  0  0
 31 30  1  0  0  0  0
 30 60  1  0  0  0  0
 30 61  1  0  0  0  0
 31 33  1  0  0  0  0
 31 62  1  0  0  0  0
 31 32  1  0  0  0  0
 32 63  1  0  0  0  0
 33 64  1  0  0  0  0
 33 65  1  0  0  0  0
 34 66  1  0  0  0  0
 34 67  1  0  0  0  0
 34 68  1  0  0  0  0
M  ZZC   1 o1
M  ZZC   2 c1
M  ZZC   3 n1
M  ZZC   4 c2
M  ZZC   5 c3
M  ZZC   6 c4
M  ZZC   7 c5
M  ZZC   8 c6
M  ZZC   9 c7
M  ZZC  10 o2
M  ZZC  11 n2
M  ZZC  12 c8
M  ZZC  13 c9
M  ZZC  14 o3
M  ZZC  15 n3
M  ZZC  16 c10
M  ZZC  17 c11
M  ZZC  18 c12
M  ZZC  19 c13
M  ZZC  20 c14
M  ZZC  21 c15
M  ZZC  22 c16
M  ZZC  23 c17
M  ZZC  24 c18
M  ZZC  25 n4
M  ZZC  26 c19
M  ZZC  27 s1
M  ZZC  28 c20
M  ZZC  29 c21
M  ZZC  30 c22
M  ZZC  31 c23
M  ZZC  32 o4
M  ZZC  33 c24
M  ZZC  34 c25
M  ZZC  35 h11
M  ZZC  36 h21
M  ZZC  37 h41
M  ZZC  38 h42
M  ZZC  39 h43
M  ZZC  40 h51
M  ZZC  41 h52
M  ZZC  42 h53
M  ZZC  43 h61
M  ZZC  44 h62
M  ZZC  45 h63
M  ZZC  46 h81
M  ZZC  47 h31
M  ZZC  48 h101
M  ZZC  49 h111
M  ZZC  50 h112
M  ZZC  51 h113
M  ZZC  52 h131
M  ZZC  53 h141
M  ZZC  54 h181
M  ZZC  55 h182
M  ZZC  56 h183
M  ZZC  57 h191
M  ZZC  58 h201
M  ZZC  59 h211
M  ZZC  60 h221
M  ZZC  61 h222
M  ZZC  62 h231
M  ZZC  63 h01
M  ZZC  64 h241
M  ZZC  65 h242
M  ZZC  66 h251
M  ZZC  67 h252
M  ZZC  68 h253
M  ZZM   1 7
M  ZZI   1 81
M  ZZM   2 3
M  ZZI   2 121
M  ZZM   3 10
M  ZZI   3 211
M  ZZM   4 1
M  ZZI   4 113
M  ZZM   5 1
M  ZZI   5 110
M  ZZM   6 1
M  ZZI   6 111
M  ZZM   7 1
M  ZZI   7 111
M  ZZM   8 1
M  ZZI   8 111
M  ZZM   9 3
M  ZZI   9 121
M  ZZM  10 7
M  ZZI  10 81
M  ZZM  11 10
M  ZZI  11 192
M  ZZM  12 1
M  ZZI  12 113
M  ZZM  13 3
M  ZZI  13 121
M  ZZM  14 7
M  ZZI  14 81
M  ZZM  15 10
M  ZZI  15 211
M  ZZM  16 1
M  ZZI  16 113
M  ZZM  17 1
M  ZZI  17 111
M  ZZM  18 37
M  ZZI  18 124
M  ZZM  19 37
M  ZZI  19 125
M  ZZM  20 37
M  ZZI  20 125
M  ZZM  21 37
M  ZZI  21 124
M  ZZM  22 63
M  ZZI  22 104
M  ZZM  23 64
M  ZZI  23 105
M  ZZM  24 1
M  ZZI  24 111
M  ZZM  25 66
M  ZZI  25 222
M  ZZM  26 63
M  ZZI  26 104
M  ZZM  27 44
M  ZZI  27 248
M  ZZM  28 37
M  ZZI  28 125
M  ZZM  29 37
M  ZZI  29 125
M  ZZM  30 1
M  ZZI  30 112
M  ZZM  31 1
M  ZZI  31 113
M  ZZM  32 6
M  ZZI  32 60
M  ZZM  33 1
M  ZZI  33 112
M  ZZM  34 1
M  ZZI  34 111
M  ZZM  35 28
M  ZZI  35 11
M  ZZM  36 5
M  ZZI  36 1
M  ZZM  37 5
M  ZZI  37 1
M  ZZM  38 5
M  ZZI  38 1
M  ZZM  39 5
M  ZZI  39 1
M  ZZM  40 5
M  ZZI  40 1
M  ZZM  41 5
M  ZZI  41 1
M  ZZM  42 5
M  ZZI  42 1
M  ZZM  43 5
M  ZZI  43 1
M  ZZM  44 5
M  ZZI  44 1
M  ZZM  45 5
M  ZZI  45 1
M  ZZM  46 5
M  ZZI  46 1
M  ZZM  47 28
M  ZZI  47 11
M  ZZM  48 5
M  ZZI  48 1
M  ZZM  49 5
M  ZZI  49 1
M  ZZM  50 5
M  ZZI  50 1
M  ZZM  51 5
M  ZZI  51 1
M  ZZM  52 5
M  ZZI  52 1
M  ZZM  53 5
M  ZZI  53 1
M  ZZM  54 5
M  ZZI  54 1
M  ZZM  55 5
M  ZZI  55 1
M  ZZM  56 5
M  ZZI  56 1
M  ZZM  57 5
M  ZZI  57 1
M  ZZM  58 5
M  ZZI  58 1
M  ZZM  59 5
M  ZZI  59 1
M  ZZM  60 5
M  ZZI  60 1
M  ZZM  61 5
M  ZZI  61 1
M  ZZM  62 5
M  ZZI  62 1
M  ZZM  63 21
M  ZZI  63 20
M  ZZM  64 5
M  ZZI  64 1
M  ZZM  65 5
M  ZZI  65 1
M  ZZM  66 5
M  ZZI  66 1
M  ZZM  67 5
M  ZZI  67 1
M  ZZM  68 5
M  ZZI  68 1
M  END
> <IX>
1

> <NAME>
VHL_1ERR_17.pdb

> <Score>
-1.703153

> <Natom>
68

> <Nflex>
8

> <Hbond>
-4.85672

> <Hphob>
-6.742598

> <VwInt>
-27.483662

> <Dsolv>
22.719394

> <SolEl>
23.542677

> <Eintl>
8.679733

> <RecConf>
ND

> <projPath>
VHL_maps/

> <NAME_>
VHL_1ERR_17.pdb

$$$$
