VHL_2GQG_18.pdb
  MOLSOFT 04032206373D

 65 67  0  0  1  0  0  0  0  0999 V2000
   18.1238   -6.6983   -5.1401 C   0  0  0  0  0  0  0  0  0  0  0  0
   16.9122   -5.8195   -4.9880 C   0  0  0  0  0  0  0  0  0  0  0  0
   15.8258   -6.1745   -5.4115 O   0  0  0  0  0  0  0  0  0  0  0  0
   17.1595   -4.6402   -4.3129 N   0  0  0  0  0  0  0  0  0  0  0  0
   16.1550   -3.5978   -4.0458 C   0  0  1  0  0  0  0  0  0  0  0  0
   15.8831   -3.4333   -2.5211 C   0  0  0  0  0  0  0  0  0  0  0  0
   15.4057   -4.7835   -1.9722 C   0  0  0  0  0  0  0  0  0  0  0  0
   14.7716   -2.4198   -2.2252 C   0  0  0  0  0  0  0  0  0  0  0  0
   17.1318   -2.9818   -1.7506 C   0  0  0  0  0  0  0  0  0  0  0  0
   16.6778   -2.3501   -4.7885 C   0  0  0  0  0  0  0  0  0  0  0  0
   17.8763   -2.0967   -4.8198 O   0  0  0  0  0  0  0  0  0  0  0  0
   15.7497   -1.5505   -5.4621 N   0  0  0  0  0  0  0  0  0  0  0  0
   16.1795   -0.6153   -6.4914 C   0  0  2  0  0  0  0  0  0  0  0  0
   16.5828    0.7506   -5.9264 C   0  0  0  0  0  0  0  0  0  0  0  0
   16.0382    1.2519   -4.9520 O   0  0  0  0  0  0  0  0  0  0  0  0
   17.5626    1.3854   -6.6699 N   0  0  0  0  0  0  0  0  0  0  0  0
   18.0143    2.7322   -6.3549 C   0  0  0  0  0  0  0  0  0  0  0  0
   19.4700    3.0242   -6.6481 C   0  0  0  0  0  0  0  0  0  0  0  0
   20.3557    2.0846   -7.1659 C   0  0  0  0  0  0  0  0  0  0  0  0
   21.6846    2.3976   -7.3797 C   0  0  0  0  0  0  0  0  0  0  0  0
   22.1932    3.6499   -7.0699 C   0  0  0  0  0  0  0  0  0  0  0  0
   23.6170    3.9221   -7.2295 C   0  0  0  0  0  0  0  0  0  0  0  0
   24.4355    3.8856   -8.3525 C   0  0  0  0  0  0  0  0  0  0  0  0
   24.0308    3.6175   -9.7499 C   0  0  0  0  0  0  0  0  0  0  0  0
   25.7734    4.1228   -8.1104 N   0  0  0  0  0  0  0  0  0  0  0  0
   25.9587    4.3577   -6.8316 C   0  0  0  0  0  0  0  0  0  0  0  0
   24.5645    4.3165   -5.8474 S   0  0  0  0  0  0  0  0  0  0  0  0
   21.3129    4.6010   -6.5684 C   0  0  0  0  0  0  0  0  0  0  0  0
   19.9756    4.2917   -6.3683 C   0  0  0  0  0  0  0  0  0  0  0  0
   14.9626   -0.4957   -7.3970 C   0  0  0  0  0  0  0  0  0  0  0  0
   13.7854   -0.6384   -6.4425 C   0  0  1  0  0  0  0  0  0  0  0  0
   12.6533   -1.2316   -7.0740 O   0  0  0  0  0  0  0  0  0  0  0  0
   14.3013   -1.5597   -5.3507 C   0  0  0  0  0  0  0  0  0  0  0  0
   19.0382   -6.1029   -5.2201 H   0  0  0  0  0  0  0  0  0  0  0  0
   18.0248   -7.3006   -6.0481 H   0  0  0  0  0  0  0  0  0  0  0  0
   18.1916   -7.3624   -4.2751 H   0  0  0  0  0  0  0  0  0  0  0  0
   18.1200   -4.4386   -4.0589 H   0  0  0  0  0  0  0  0  0  0  0  0
   15.2290   -3.9252   -4.5172 H   0  0  0  0  0  0  0  0  0  0  0  0
   15.1376   -4.7045   -0.9164 H   0  0  0  0  0  0  0  0  0  0  0  0
   16.1736   -5.5539   -2.0643 H   0  0  0  0  0  0  0  0  0  0  0  0
   14.5208   -5.1443   -2.5064 H   0  0  0  0  0  0  0  0  0  0  0  0
   15.0610   -1.4090   -2.5315 H   0  0  0  0  0  0  0  0  0  0  0  0
   14.5491   -2.3727   -1.1548 H   0  0  0  0  0  0  0  0  0  0  0  0
   13.8534   -2.6564   -2.7696 H   0  0  0  0  0  0  0  0  0  0  0  0
   16.9360   -2.9177   -0.6753 H   0  0  0  0  0  0  0  0  0  0  0  0
   17.4769   -1.9958   -2.0766 H   0  0  0  0  0  0  0  0  0  0  0  0
   17.9589   -3.6769   -1.8801 H   0  0  0  0  0  0  0  0  0  0  0  0
   17.0296   -1.0374   -7.0362 H   0  0  0  0  0  0  0  0  0  0  0  0
   17.9417    0.9136   -7.4846 H   0  0  0  0  0  0  0  0  0  0  0  0
   17.3870    3.4100   -6.9440 H   0  0  0  0  0  0  0  0  0  0  0  0
   17.8177    2.9290   -5.2956 H   0  0  0  0  0  0  0  0  0  0  0  0
   20.0351    1.0762   -7.3936 H   0  0  0  0  0  0  0  0  0  0  0  0
   22.3343    1.6257   -7.7725 H   0  0  0  0  0  0  0  0  0  0  0  0
   23.8875    2.5467   -9.9079 H   0  0  0  0  0  0  0  0  0  0  0  0
   24.7972    3.9573  -10.4523 H   0  0  0  0  0  0  0  0  0  0  0  0
   23.1018    4.1380   -9.9969 H   0  0  0  0  0  0  0  0  0  0  0  0
   26.9358    4.5657   -6.4192 H   0  0  0  0  0  0  0  0  0  0  0  0
   21.6648    5.5977   -6.3189 H   0  0  0  0  0  0  0  0  0  0  0  0
   19.3199    5.0582   -5.9651 H   0  0  0  0  0  0  0  0  0  0  0  0
   14.9227    0.4432   -7.9592 H   0  0  0  0  0  0  0  0  0  0  0  0
   14.9556   -1.3114   -8.1286 H   0  0  0  0  0  0  0  0  0  0  0  0
   13.4879    0.3307   -6.0258 H   0  0  0  0  0  0  0  0  0  0  0  0
   12.3451   -0.6305   -7.7757 H   0  0  0  0  0  0  0  0  0  0  0  0
   13.9061   -2.5744   -5.4151 H   0  0  0  0  0  0  0  0  0  0  0  0
   14.0167   -1.1511   -4.3812 H   0  0  0  0  0  0  0  0  0  0  0  0
  1 34  1  0  0  0  0
  1 35  1  0  0  0  0
  1 36  1  0  0  0  0
  1  2  1  0  0  0  0
  2  3  2  0  0  0  0
  2  4  1  0  0  0  0
  4 37  1  0  0  0  0
  5  4  1  0  0  0  0
  5 38  1  0  0  0  0
  5  6  1  0  0  0  0
  5 10  1  0  0  0  0
  6  7  1  0  0  0  0
  6  8  1  0  0  0  0
  6  9  1  0  0  0  0
  7 39  1  0  0  0  0
  7 40  1  0  0  0  0
  7 41  1  0  0  0  0
  8 42  1  0  0  0  0
  8 43  1  0  0  0  0
  8 44  1  0  0  0  0
  9 45  1  0  0  0  0
  9 46  1  0  0  0  0
  9 47  1  0  0  0  0
 10 11  2  0  0  0  0
 10 12  1  0  0  0  0
 12 33  1  0  0  0  0
 13 12  1  0  0  0  0
 13 30  1  0  0  0  0
 13 48  1  0  0  0  0
 13 14  1  0  0  0  0
 14 15  2  0  0  0  0
 14 16  1  0  0  0  0
 16 49  1  0  0  0  0
 16 17  1  0  0  0  0
 17 50  1  0  0  0  0
 17 51  1  0  0  0  0
 17 18  1  0  0  0  0
 18 19  1  0  0  0  0
 18 29  2  0  0  0  0
 19 52  1  0  0  0  0
 19 20  2  0  0  0  0
 20 53  1  0  0  0  0
 20 21  1  0  0  0  0
 21 28  2  0  0  0  0
 21 22  1  0  0  0  0
 22 23  2  0  0  0  0
 22 27  1  0  0  0  0
 23 24  1  0  0  0  0
 23 25  1  0  0  0  0
 24 54  1  0  0  0  0
 24 55  1  0  0  0  0
 24 56  1  0  0  0  0
 25 26  2  0  0  0  0
 26 57  1  0  0  0  0
 26 27  1  0  0  0  0
 28 58  1  0  0  0  0
 28 29  1  0  0  0  0
 29 59  1  0  0  0  0
 31 30  1  0  0  0  0
 30 60  1  0  0  0  0
 30 61  1  0  0  0  0
 31 33  1  0  0  0  0
 31 62  1  0  0  0  0
 31 32  1  0  0  0  0
 32 63  1  0  0  0  0
 33 64  1  0  0  0  0
 33 65  1  0  0  0  0
M  ZZC   1 c1
M  ZZC   2 c2
M  ZZC   3 o1
M  ZZC   4 n1
M  ZZC   5 c3
M  ZZC   6 c4
M  ZZC   7 c5
M  ZZC   8 c6
M  ZZC   9 c7
M  ZZC  10 c8
M  ZZC  11 o2
M  ZZC  12 n2
M  ZZC  13 c9
M  ZZC  14 c10
M  ZZC  15 o3
M  ZZC  16 n3
M  ZZC  17 c11
M  ZZC  18 c12
M  ZZC  19 c13
M  ZZC  20 c14
M  ZZC  21 c15
M  ZZC  22 c16
M  ZZC  23 c17
M  ZZC  24 c18
M  ZZC  25 n4
M  ZZC  26 c19
M  ZZC  27 s1
M  ZZC  28 c20
M  ZZC  29 c21
M  ZZC  30 c22
M  ZZC  31 c23
M  ZZC  32 o4
M  ZZC  33 c24
M  ZZC  34 h11
M  ZZC  35 h12
M  ZZC  36 h13
M  ZZC  37 h01
M  ZZC  38 h31
M  ZZC  39 h51
M  ZZC  40 h52
M  ZZC  41 h53
M  ZZC  42 h61
M  ZZC  43 h62
M  ZZC  44 h63
M  ZZC  45 h71
M  ZZC  46 h72
M  ZZC  47 h73
M  ZZC  48 h91
M  ZZC  49 h02
M  ZZC  50 h111
M  ZZC  51 h112
M  ZZC  52 h131
M  ZZC  53 h141
M  ZZC  54 h181
M  ZZC  55 h182
M  ZZC  56 h183
M  ZZC  57 h191
M  ZZC  58 h201
M  ZZC  59 h211
M  ZZC  60 h221
M  ZZC  61 h222
M  ZZC  62 h231
M  ZZC  63 h41
M  ZZC  64 h241
M  ZZC  65 h242
M  ZZM   1 1
M  ZZI   1 111
M  ZZM   2 3
M  ZZI   2 121
M  ZZM   3 7
M  ZZI   3 81
M  ZZM   4 10
M  ZZI   4 211
M  ZZM   5 1
M  ZZI   5 113
M  ZZM   6 1
M  ZZI   6 110
M  ZZM   7 1
M  ZZI   7 111
M  ZZM   8 1
M  ZZI   8 111
M  ZZM   9 1
M  ZZI   9 111
M  ZZM  10 3
M  ZZI  10 121
M  ZZM  11 7
M  ZZI  11 81
M  ZZM  12 10
M  ZZI  12 192
M  ZZM  13 1
M  ZZI  13 113
M  ZZM  14 3
M  ZZI  14 121
M  ZZM  15 7
M  ZZI  15 81
M  ZZM  16 10
M  ZZI  16 211
M  ZZM  17 1
M  ZZI  17 112
M  ZZM  18 37
M  ZZI  18 124
M  ZZM  19 37
M  ZZI  19 125
M  ZZM  20 37
M  ZZI  20 125
M  ZZM  21 37
M  ZZI  21 124
M  ZZM  22 63
M  ZZI  22 104
M  ZZM  23 64
M  ZZI  23 105
M  ZZM  24 1
M  ZZI  24 111
M  ZZM  25 66
M  ZZI  25 222
M  ZZM  26 63
M  ZZI  26 104
M  ZZM  27 44
M  ZZI  27 248
M  ZZM  28 37
M  ZZI  28 125
M  ZZM  29 37
M  ZZI  29 125
M  ZZM  30 1
M  ZZI  30 112
M  ZZM  31 1
M  ZZI  31 113
M  ZZM  32 6
M  ZZI  32 60
M  ZZM  33 1
M  ZZI  33 112
M  ZZM  34 5
M  ZZI  34 1
M  ZZM  35 5
M  ZZI  35 1
M  ZZM  36 5
M  ZZI  36 1
M  ZZM  37 28
M  ZZI  37 11
M  ZZM  38 5
M  ZZI  38 1
M  ZZM  39 5
M  ZZI  39 1
M  ZZM  40 5
M  ZZI  40 1
M  ZZM  41 5
M  ZZI  41 1
M  ZZM  42 5
M  ZZI  42 1
M  ZZM  43 5
M  ZZI  43 1
M  ZZM  44 5
M  ZZI  44 1
M  ZZM  45 5
M  ZZI  45 1
M  ZZM  46 5
M  ZZI  46 1
M  ZZM  47 5
M  ZZI  47 1
M  ZZM  48 5
M  ZZI  48 1
M  ZZM  49 28
M  ZZI  49 11
M  ZZM  50 5
M  ZZI  50 1
M  ZZM  51 5
M  ZZI  51 1
M  ZZM  52 5
M  ZZI  52 1
M  ZZM  53 5
M  ZZI  53 1
M  ZZM  54 5
M  ZZI  54 1
M  ZZM  55 5
M  ZZI  55 1
M  ZZM  56 5
M  ZZI  56 1
M  ZZM  57 5
M  ZZI  57 1
M  ZZM  58 5
M  ZZI  58 1
M  ZZM  59 5
M  ZZI  59 1
M  ZZM  60 5
M  ZZI  60 1
M  ZZM  61 5
M  ZZI  61 1
M  ZZM  62 5
M  ZZI  62 1
M  ZZM  63 21
M  ZZI  63 20
M  ZZM  64 5
M  ZZI  64 1
M  ZZM  65 5
M  ZZI  65 1
M  END
> <IX>
1

> <NAME>
VHL_2GQG_18.pdb

> <Score>
-11.066707

> <Natom>
65

> <Nflex>
8

> <Hbond>
-4.957586

> <Hphob>
-6.442924

> <VwInt>
-28.098909

> <Dsolv>
16.846316

> <SolEl>
16.988291

> <Eintl>
8.741077

> <RecConf>
ND

> <projPath>
VHL_maps/

> <NAME_>
VHL_2GQG_18.pdb

$$$$
