VHL_1ERR_25.pdb
  MOLSOFT 04032206373D

 68 70  0  0  1  0  0  0  0  0999 V2000
   16.6756   -6.1624   -5.8956 O   0  0  0  0  0  0  0  0  0  0  0  0
   17.7099   -5.5710   -5.6264 C   0  0  0  0  0  0  0  0  0  0  0  0
   17.7884   -4.2850   -5.1199 N   0  0  0  0  0  0  0  0  0  0  0  0
   16.6403   -3.3954   -4.9229 C   0  0  1  0  0  0  0  0  0  0  0  0
   15.9957   -3.5059   -3.4995 C   0  0  0  0  0  0  0  0  0  0  0  0
   16.8977   -2.9111   -2.4074 C   0  0  0  0  0  0  0  0  0  0  0  0
   15.7165   -4.9674   -3.1171 C   0  0  0  0  0  0  0  0  0  0  0  0
   14.6459   -2.7740   -3.4705 C   0  0  0  0  0  0  0  0  0  0  0  0
   17.1698   -1.9801   -5.2470 C   0  0  0  0  0  0  0  0  0  0  0  0
   18.2752   -1.6303   -4.8588 O   0  0  0  0  0  0  0  0  0  0  0  0
   16.3653   -1.0881   -5.9602 N   0  0  0  0  0  0  0  0  0  0  0  0
   16.8465    0.2693   -6.2436 C   0  0  2  0  0  0  0  0  0  0  0  0
   16.7750    1.2269   -5.0524 C   0  0  0  0  0  0  0  0  0  0  0  0
   17.5013    2.2080   -4.9844 O   0  0  0  0  0  0  0  0  0  0  0  0
   15.7218    0.9968   -4.1871 N   0  0  0  0  0  0  0  0  0  0  0  0
   15.3962    1.8832   -3.0819 C   0  0  1  0  0  0  0  0  0  0  0  0
   14.2950    2.8569   -3.5039 C   0  0  0  0  0  0  0  0  0  0  0  0
   15.0779    1.0765   -1.8374 C   0  0  0  0  0  0  0  0  0  0  0  0
   13.7819    0.7146   -1.4669 C   0  0  0  0  0  0  0  0  0  0  0  0
   13.5488   -0.0302   -0.3222 C   0  0  0  0  0  0  0  0  0  0  0  0
   14.6013   -0.4385    0.4863 C   0  0  0  0  0  0  0  0  0  0  0  0
   14.3514   -1.1921    1.7036 C   0  0  0  0  0  0  0  0  0  0  0  0
   13.7836   -0.7954    2.9062 C   0  0  0  0  0  0  0  0  0  0  0  0
   13.3289    0.5688    3.2669 C   0  0  0  0  0  0  0  0  0  0  0  0
   13.6710   -1.7932    3.8550 N   0  0  0  0  0  0  0  0  0  0  0  0
   14.1686   -2.9124    3.3792 C   0  0  0  0  0  0  0  0  0  0  0  0
   14.8003   -2.8477    1.7936 S   0  0  0  0  0  0  0  0  0  0  0  0
   15.8948   -0.0980    0.1154 C   0  0  0  0  0  0  0  0  0  0  0  0
   16.1263    0.6437   -1.0293 C   0  0  0  0  0  0  0  0  0  0  0  0
   15.9353    0.7926   -7.3490 C   0  0  0  0  0  0  0  0  0  0  0  0
   15.3513   -0.4570   -7.9726 C   0  0  1  0  0  0  0  0  0  0  0  0
   16.2245   -0.9727   -8.9880 O   0  0  0  0  0  0  0  0  0  0  0  0
   15.2469   -1.4343   -6.8141 C   0  0  0  0  0  0  0  0  0  0  0  0
   19.0497   -6.2250   -5.8367 C   0  0  0  0  0  0  0  0  0  0  0  0
   18.7052   -3.8952   -4.9290 H   0  0  0  0  0  0  0  0  0  0  0  0
   15.9152   -3.6878   -5.6742 H   0  0  0  0  0  0  0  0  0  0  0  0
   17.8837   -3.3806   -2.4030 H   0  0  0  0  0  0  0  0  0  0  0  0
   16.4667   -3.0551   -1.4114 H   0  0  0  0  0  0  0  0  0  0  0  0
   17.0454   -1.8359   -2.5374 H   0  0  0  0  0  0  0  0  0  0  0  0
   15.0874   -5.4568   -3.8617 H   0  0  0  0  0  0  0  0  0  0  0  0
   15.1912   -5.0407   -2.1592 H   0  0  0  0  0  0  0  0  0  0  0  0
   16.6354   -5.5513   -3.0166 H   0  0  0  0  0  0  0  0  0  0  0  0
   14.1482   -2.8895   -2.5029 H   0  0  0  0  0  0  0  0  0  0  0  0
   13.9655   -3.1435   -4.2363 H   0  0  0  0  0  0  0  0  0  0  0  0
   14.7659   -1.7005   -3.6484 H   0  0  0  0  0  0  0  0  0  0  0  0
   17.8890    0.2094   -6.5744 H   0  0  0  0  0  0  0  0  0  0  0  0
   15.1348    0.1877   -4.3452 H   0  0  0  0  0  0  0  0  0  0  0  0
   16.2799    2.4935   -2.8638 H   0  0  0  0  0  0  0  0  0  0  0  0
   14.6342    3.4912   -4.3290 H   0  0  0  0  0  0  0  0  0  0  0  0
   13.9979    3.5115   -2.6779 H   0  0  0  0  0  0  0  0  0  0  0  0
   13.4030    2.3335   -3.8608 H   0  0  0  0  0  0  0  0  0  0  0  0
   12.9291    1.0116   -2.0673 H   0  0  0  0  0  0  0  0  0  0  0  0
   12.5288   -0.2957   -0.0612 H   0  0  0  0  0  0  0  0  0  0  0  0
   14.1877    1.2115    3.4797 H   0  0  0  0  0  0  0  0  0  0  0  0
   12.6960    0.5483    4.1591 H   0  0  0  0  0  0  0  0  0  0  0  0
   12.7521    1.0292    2.4594 H   0  0  0  0  0  0  0  0  0  0  0  0
   14.1838   -3.8266    3.9549 H   0  0  0  0  0  0  0  0  0  0  0  0
   16.7408   -0.4049    0.7236 H   0  0  0  0  0  0  0  0  0  0  0  0
   17.1522    0.8877   -1.2920 H   0  0  0  0  0  0  0  0  0  0  0  0
   15.1297    1.4125   -6.9391 H   0  0  0  0  0  0  0  0  0  0  0  0
   16.4912    1.4028   -8.0673 H   0  0  0  0  0  0  0  0  0  0  0  0
   14.3814   -0.2548   -8.4248 H   0  0  0  0  0  0  0  0  0  0  0  0
   17.1382   -0.9213   -8.6482 H   0  0  0  0  0  0  0  0  0  0  0  0
   15.3007   -2.4711   -7.1526 H   0  0  0  0  0  0  0  0  0  0  0  0
   14.3298   -1.2732   -6.2379 H   0  0  0  0  0  0  0  0  0  0  0  0
   19.1106   -6.5962   -6.8630 H   0  0  0  0  0  0  0  0  0  0  0  0
   19.1553   -7.0645   -5.1448 H   0  0  0  0  0  0  0  0  0  0  0  0
   19.8714   -5.5220   -5.6826 H   0  0  0  0  0  0  0  0  0  0  0  0
  1  2  2  0  0  0  0
  2  3  1  0  0  0  0
  2 34  1  0  0  0  0
  4  3  1  0  0  0  0
  3 35  1  0  0  0  0
  4  5  1  0  0  0  0
  4 36  1  0  0  0  0
  4  9  1  0  0  0  0
  5  6  1  0  0  0  0
  5  7  1  0  0  0  0
  5  8  1  0  0  0  0
  6 37  1  0  0  0  0
  6 38  1  0  0  0  0
  6 39  1  0  0  0  0
  7 40  1  0  0  0  0
  7 41  1  0  0  0  0
  7 42  1  0  0  0  0
  8 43  1  0  0  0  0
  8 44  1  0  0  0  0
  8 45  1  0  0  0  0
  9 10  2  0  0  0  0
  9 11  1  0  0  0  0
 11 33  1  0  0  0  0
 12 11  1  0  0  0  0
 12 30  1  0  0  0  0
 12 46  1  0  0  0  0
 12 13  1  0  0  0  0
 13 14  2  0  0  0  0
 13 15  1  0  0  0  0
 15 47  1  0  0  0  0
 16 15  1  0  0  0  0
 16 48  1  0  0  0  0
 16 17  1  0  0  0  0
 16 18  1  0  0  0  0
 17 49  1  0  0  0  0
 17 50  1  0  0  0  0
 17 51  1  0  0  0  0
 18 19  1  0  0  0  0
 18 29  2  0  0  0  0
 19 52  1  0  0  0  0
 19 20  2  0  0  0  0
 20 53  1  0  0  0  0
 20 21  1  0  0  0  0
 21 28  2  0  0  0  0
 21 22  1  0  0  0  0
 22 23  2  0  0  0  0
 22 27  1  0  0  0  0
 23 24  1  0  0  0  0
 23 25  1  0  0  0  0
 24 54  1  0  0  0  0
 24 55  1  0  0  0  0
 24 56  1  0  0  0  0
 25 26  2  0  0  0  0
 26 57  1  0  0  0  0
 26 27  1  0  0  0  0
 28 58  1  0  0  0  0
 28 29  1  0  0  0  0
 29 59  1  0  0  0  0
 31 30  1  0  0  0  0
 30 60  1  0  0  0  0
 30 61  1  0  0  0  0
 31 33  1  0  0  0  0
 31 62  1  0  0  0  0
 31 32  1  0  0  0  0
 32 63  1  0  0  0  0
 33 64  1  0  0  0  0
 33 65  1  0  0  0  0
 34 66  1  0  0  0  0
 34 67  1  0  0  0  0
 34 68  1  0  0  0  0
M  ZZC   1 o1
M  ZZC   2 c1
M  ZZC   3 n1
M  ZZC   4 c2
M  ZZC   5 c3
M  ZZC   6 c4
M  ZZC   7 c5
M  ZZC   8 c6
M  ZZC   9 c7
M  ZZC  10 o2
M  ZZC  11 n2
M  ZZC  12 c8
M  ZZC  13 c9
M  ZZC  14 o3
M  ZZC  15 n3
M  ZZC  16 c10
M  ZZC  17 c11
M  ZZC  18 c12
M  ZZC  19 c13
M  ZZC  20 c14
M  ZZC  21 c15
M  ZZC  22 c16
M  ZZC  23 c17
M  ZZC  24 c18
M  ZZC  25 n4
M  ZZC  26 c19
M  ZZC  27 s1
M  ZZC  28 c20
M  ZZC  29 c21
M  ZZC  30 c22
M  ZZC  31 c23
M  ZZC  32 o4
M  ZZC  33 c24
M  ZZC  34 c25
M  ZZC  35 h11
M  ZZC  36 h21
M  ZZC  37 h41
M  ZZC  38 h42
M  ZZC  39 h43
M  ZZC  40 h51
M  ZZC  41 h52
M  ZZC  42 h53
M  ZZC  43 h61
M  ZZC  44 h62
M  ZZC  45 h63
M  ZZC  46 h81
M  ZZC  47 h31
M  ZZC  48 h101
M  ZZC  49 h111
M  ZZC  50 h112
M  ZZC  51 h113
M  ZZC  52 h131
M  ZZC  53 h141
M  ZZC  54 h181
M  ZZC  55 h182
M  ZZC  56 h183
M  ZZC  57 h191
M  ZZC  58 h201
M  ZZC  59 h211
M  ZZC  60 h221
M  ZZC  61 h222
M  ZZC  62 h231
M  ZZC  63 h01
M  ZZC  64 h241
M  ZZC  65 h242
M  ZZC  66 h251
M  ZZC  67 h252
M  ZZC  68 h253
M  ZZM   1 7
M  ZZI   1 81
M  ZZM   2 3
M  ZZI   2 121
M  ZZM   3 10
M  ZZI   3 211
M  ZZM   4 1
M  ZZI   4 113
M  ZZM   5 1
M  ZZI   5 110
M  ZZM   6 1
M  ZZI   6 111
M  ZZM   7 1
M  ZZI   7 111
M  ZZM   8 1
M  ZZI   8 111
M  ZZM   9 3
M  ZZI   9 121
M  ZZM  10 7
M  ZZI  10 81
M  ZZM  11 10
M  ZZI  11 192
M  ZZM  12 1
M  ZZI  12 113
M  ZZM  13 3
M  ZZI  13 121
M  ZZM  14 7
M  ZZI  14 81
M  ZZM  15 10
M  ZZI  15 211
M  ZZM  16 1
M  ZZI  16 113
M  ZZM  17 1
M  ZZI  17 111
M  ZZM  18 37
M  ZZI  18 124
M  ZZM  19 37
M  ZZI  19 125
M  ZZM  20 37
M  ZZI  20 125
M  ZZM  21 37
M  ZZI  21 124
M  ZZM  22 63
M  ZZI  22 104
M  ZZM  23 64
M  ZZI  23 105
M  ZZM  24 1
M  ZZI  24 111
M  ZZM  25 66
M  ZZI  25 222
M  ZZM  26 63
M  ZZI  26 104
M  ZZM  27 44
M  ZZI  27 248
M  ZZM  28 37
M  ZZI  28 125
M  ZZM  29 37
M  ZZI  29 125
M  ZZM  30 1
M  ZZI  30 112
M  ZZM  31 1
M  ZZI  31 113
M  ZZM  32 6
M  ZZI  32 60
M  ZZM  33 1
M  ZZI  33 112
M  ZZM  34 1
M  ZZI  34 111
M  ZZM  35 28
M  ZZI  35 11
M  ZZM  36 5
M  ZZI  36 1
M  ZZM  37 5
M  ZZI  37 1
M  ZZM  38 5
M  ZZI  38 1
M  ZZM  39 5
M  ZZI  39 1
M  ZZM  40 5
M  ZZI  40 1
M  ZZM  41 5
M  ZZI  41 1
M  ZZM  42 5
M  ZZI  42 1
M  ZZM  43 5
M  ZZI  43 1
M  ZZM  44 5
M  ZZI  44 1
M  ZZM  45 5
M  ZZI  45 1
M  ZZM  46 5
M  ZZI  46 1
M  ZZM  47 28
M  ZZI  47 11
M  ZZM  48 5
M  ZZI  48 1
M  ZZM  49 5
M  ZZI  49 1
M  ZZM  50 5
M  ZZI  50 1
M  ZZM  51 5
M  ZZI  51 1
M  ZZM  52 5
M  ZZI  52 1
M  ZZM  53 5
M  ZZI  53 1
M  ZZM  54 5
M  ZZI  54 1
M  ZZM  55 5
M  ZZI  55 1
M  ZZM  56 5
M  ZZI  56 1
M  ZZM  57 5
M  ZZI  57 1
M  ZZM  58 5
M  ZZI  58 1
M  ZZM  59 5
M  ZZI  59 1
M  ZZM  60 5
M  ZZI  60 1
M  ZZM  61 5
M  ZZI  61 1
M  ZZM  62 5
M  ZZI  62 1
M  ZZM  63 21
M  ZZI  63 20
M  ZZM  64 5
M  ZZI  64 1
M  ZZM  65 5
M  ZZI  65 1
M  ZZM  66 5
M  ZZI  66 1
M  ZZM  67 5
M  ZZI  67 1
M  ZZM  68 5
M  ZZI  68 1
M  END
> <IX>
1

> <NAME>
VHL_1ERR_25.pdb

> <Score>
-25.471751

> <Natom>
68

> <Nflex>
8

> <Hbond>
-7.92051

> <Hphob>
-6.895079

> <VwInt>
-28.167397

> <Dsolv>
17.495379

> <SolEl>
10.798379

> <Eintl>
3.842959

> <RecConf>
ND

> <projPath>
VHL_maps/

> <NAME_>
VHL_1ERR_25.pdb

$$$$
