VHL_4BJX_1.pdb
  MOLSOFT 04032206363D

 65 67  0  0  1  0  0  0  0  0999 V2000
   17.2802   -6.2420   -4.3689 C   0  0  0  0  0  0  0  0  0  0  0  0
   16.4457   -5.1343   -3.7791 C   0  0  0  0  0  0  0  0  0  0  0  0
   15.3417   -5.3371   -3.2976 O   0  0  0  0  0  0  0  0  0  0  0  0
   17.0315   -3.8896   -3.8639 N   0  0  0  0  0  0  0  0  0  0  0  0
   16.2924   -2.6628   -3.5535 C   0  0  1  0  0  0  0  0  0  0  0  0
   16.5631   -2.0920   -2.1281 C   0  0  0  0  0  0  0  0  0  0  0  0
   15.5928   -0.9350   -1.8425 C   0  0  0  0  0  0  0  0  0  0  0  0
   17.9982   -1.5694   -1.9639 C   0  0  0  0  0  0  0  0  0  0  0  0
   16.3185   -3.1735   -1.0620 C   0  0  0  0  0  0  0  0  0  0  0  0
   16.6560   -1.6979   -4.6997 C   0  0  0  0  0  0  0  0  0  0  0  0
   17.8267   -1.4627   -4.9761 O   0  0  0  0  0  0  0  0  0  0  0  0
   15.6013   -1.1555   -5.4329 N   0  0  0  0  0  0  0  0  0  0  0  0
   15.8455   -0.3801   -6.6398 C   0  0  2  0  0  0  0  0  0  0  0  0
   16.1841    1.0747   -6.3050 C   0  0  0  0  0  0  0  0  0  0  0  0
   15.5157    1.7523   -5.5357 O   0  0  0  0  0  0  0  0  0  0  0  0
   17.2993    1.5489   -6.9684 N   0  0  0  0  0  0  0  0  0  0  0  0
   17.7787    2.9053   -6.7625 C   0  0  0  0  0  0  0  0  0  0  0  0
   19.2144    3.1262   -7.1757 C   0  0  0  0  0  0  0  0  0  0  0  0
   19.6567    4.4009   -7.5233 C   0  0  0  0  0  0  0  0  0  0  0  0
   20.9838    4.6356   -7.8526 C   0  0  0  0  0  0  0  0  0  0  0  0
   21.9066    3.5975   -7.8407 C   0  0  0  0  0  0  0  0  0  0  0  0
   23.3073    3.8187   -8.1611 C   0  0  0  0  0  0  0  0  0  0  0  0
   24.3628    4.2131   -7.3514 C   0  0  0  0  0  0  0  0  0  0  0  0
   24.2991    4.5568   -5.9128 C   0  0  0  0  0  0  0  0  0  0  0  0
   25.5926    4.2588   -7.9770 N   0  0  0  0  0  0  0  0  0  0  0  0
   25.4576    3.9307   -9.2422 C   0  0  0  0  0  0  0  0  0  0  0  0
   23.8755    3.5557   -9.7610 S   0  0  0  0  0  0  0  0  0  0  0  0
   21.4677    2.3293   -7.4934 C   0  0  0  0  0  0  0  0  0  0  0  0
   20.1490    2.0973   -7.1577 C   0  0  0  0  0  0  0  0  0  0  0  0
   14.5379   -0.4728   -7.4063 C   0  0  0  0  0  0  0  0  0  0  0  0
   13.4761   -0.5996   -6.3241 C   0  0  1  0  0  0  0  0  0  0  0  0
   12.3417   -1.3249   -6.7975 O   0  0  0  0  0  0  0  0  0  0  0  0
   14.1814   -1.3830   -5.2287 C   0  0  0  0  0  0  0  0  0  0  0  0
   18.2503   -5.8790   -4.7206 H   0  0  0  0  0  0  0  0  0  0  0  0
   16.7444   -6.6782   -5.2175 H   0  0  0  0  0  0  0  0  0  0  0  0
   17.4499   -7.0123   -3.6137 H   0  0  0  0  0  0  0  0  0  0  0  0
   17.9786   -3.8096   -4.2241 H   0  0  0  0  0  0  0  0  0  0  0  0
   15.2327   -2.9221   -3.6135 H   0  0  0  0  0  0  0  0  0  0  0  0
   15.7199   -0.1116   -2.5522 H   0  0  0  0  0  0  0  0  0  0  0  0
   15.7474   -0.5217   -0.8404 H   0  0  0  0  0  0  0  0  0  0  0  0
   14.5498   -1.2645   -1.8976 H   0  0  0  0  0  0  0  0  0  0  0  0
   18.2097   -1.3003   -0.9242 H   0  0  0  0  0  0  0  0  0  0  0  0
   18.1807   -0.6723   -2.5626 H   0  0  0  0  0  0  0  0  0  0  0  0
   18.7321   -2.3207   -2.2589 H   0  0  0  0  0  0  0  0  0  0  0  0
   16.4179   -2.7675   -0.0501 H   0  0  0  0  0  0  0  0  0  0  0  0
   17.0337   -3.9971   -1.1432 H   0  0  0  0  0  0  0  0  0  0  0  0
   15.3106   -3.5943   -1.1411 H   0  0  0  0  0  0  0  0  0  0  0  0
   16.6671   -0.8301   -7.2091 H   0  0  0  0  0  0  0  0  0  0  0  0
   17.8041    0.9319   -7.5991 H   0  0  0  0  0  0  0  0  0  0  0  0
   17.1162    3.5578   -7.3419 H   0  0  0  0  0  0  0  0  0  0  0  0
   17.6621    3.1648   -5.7047 H   0  0  0  0  0  0  0  0  0  0  0  0
   18.9600    5.2343   -7.5346 H   0  0  0  0  0  0  0  0  0  0  0  0
   21.2951    5.6414   -8.1189 H   0  0  0  0  0  0  0  0  0  0  0  0
   25.2198    5.0483   -5.5854 H   0  0  0  0  0  0  0  0  0  0  0  0
   24.1694    3.6560   -5.3089 H   0  0  0  0  0  0  0  0  0  0  0  0
   23.4668    5.2353   -5.7048 H   0  0  0  0  0  0  0  0  0  0  0  0
   26.2952    3.9007   -9.9242 H   0  0  0  0  0  0  0  0  0  0  0  0
   22.1577    1.4945   -7.4880 H   0  0  0  0  0  0  0  0  0  0  0  0
   19.8598    1.0895   -6.8812 H   0  0  0  0  0  0  0  0  0  0  0  0
   14.3534    0.3802   -8.0679 H   0  0  0  0  0  0  0  0  0  0  0  0
   14.5464   -1.3748   -8.0269 H   0  0  0  0  0  0  0  0  0  0  0  0
   13.1500    0.3807   -5.9591 H   0  0  0  0  0  0  0  0  0  0  0  0
   11.8995   -0.7885   -7.4807 H   0  0  0  0  0  0  0  0  0  0  0  0
   13.9717   -2.4551   -5.2938 H   0  0  0  0  0  0  0  0  0  0  0  0
   13.8851   -1.0418   -4.2329 H   0  0  0  0  0  0  0  0  0  0  0  0
  1 34  1  0  0  0  0
  1 35  1  0  0  0  0
  1 36  1  0  0  0  0
  1  2  1  0  0  0  0
  2  3  2  0  0  0  0
  2  4  1  0  0  0  0
  4 37  1  0  0  0  0
  5  4  1  0  0  0  0
  5 38  1  0  0  0  0
  5  6  1  0  0  0  0
  5 10  1  0  0  0  0
  6  7  1  0  0  0  0
  6  8  1  0  0  0  0
  6  9  1  0  0  0  0
  7 39  1  0  0  0  0
  7 40  1  0  0  0  0
  7 41  1  0  0  0  0
  8 42  1  0  0  0  0
  8 43  1  0  0  0  0
  8 44  1  0  0  0  0
  9 45  1  0  0  0  0
  9 46  1  0  0  0  0
  9 47  1  0  0  0  0
 10 11  2  0  0  0  0
 10 12  1  0  0  0  0
 12 33  1  0  0  0  0
 13 12  1  0  0  0  0
 13 30  1  0  0  0  0
 13 48  1  0  0  0  0
 13 14  1  0  0  0  0
 14 15  2  0  0  0  0
 14 16  1  0  0  0  0
 16 49  1  0  0  0  0
 16 17  1  0  0  0  0
 17 50  1  0  0  0  0
 17 51  1  0  0  0  0
 17 18  1  0  0  0  0
 18 19  1  0  0  0  0
 18 29  2  0  0  0  0
 19 52  1  0  0  0  0
 19 20  2  0  0  0  0
 20 53  1  0  0  0  0
 20 21  1  0  0  0  0
 21 28  2  0  0  0  0
 21 22  1  0  0  0  0
 22 23  2  0  0  0  0
 22 27  1  0  0  0  0
 23 24  1  0  0  0  0
 23 25  1  0  0  0  0
 24 54  1  0  0  0  0
 24 55  1  0  0  0  0
 24 56  1  0  0  0  0
 25 26  2  0  0  0  0
 26 57  1  0  0  0  0
 26 27  1  0  0  0  0
 28 58  1  0  0  0  0
 28 29  1  0  0  0  0
 29 59  1  0  0  0  0
 31 30  1  0  0  0  0
 30 60  1  0  0  0  0
 30 61  1  0  0  0  0
 31 33  1  0  0  0  0
 31 62  1  0  0  0  0
 31 32  1  0  0  0  0
 32 63  1  0  0  0  0
 33 64  1  0  0  0  0
 33 65  1  0  0  0  0
M  ZZC   1 c1
M  ZZC   2 c2
M  ZZC   3 o1
M  ZZC   4 n1
M  ZZC   5 c3
M  ZZC   6 c4
M  ZZC   7 c5
M  ZZC   8 c6
M  ZZC   9 c7
M  ZZC  10 c8
M  ZZC  11 o2
M  ZZC  12 n2
M  ZZC  13 c9
M  ZZC  14 c10
M  ZZC  15 o3
M  ZZC  16 n3
M  ZZC  17 c11
M  ZZC  18 c12
M  ZZC  19 c13
M  ZZC  20 c14
M  ZZC  21 c15
M  ZZC  22 c16
M  ZZC  23 c17
M  ZZC  24 c18
M  ZZC  25 n4
M  ZZC  26 c19
M  ZZC  27 s1
M  ZZC  28 c20
M  ZZC  29 c21
M  ZZC  30 c22
M  ZZC  31 c23
M  ZZC  32 o4
M  ZZC  33 c24
M  ZZC  34 h11
M  ZZC  35 h12
M  ZZC  36 h13
M  ZZC  37 h01
M  ZZC  38 h31
M  ZZC  39 h51
M  ZZC  40 h52
M  ZZC  41 h53
M  ZZC  42 h61
M  ZZC  43 h62
M  ZZC  44 h63
M  ZZC  45 h71
M  ZZC  46 h72
M  ZZC  47 h73
M  ZZC  48 h91
M  ZZC  49 h02
M  ZZC  50 h111
M  ZZC  51 h112
M  ZZC  52 h131
M  ZZC  53 h141
M  ZZC  54 h181
M  ZZC  55 h182
M  ZZC  56 h183
M  ZZC  57 h191
M  ZZC  58 h201
M  ZZC  59 h211
M  ZZC  60 h221
M  ZZC  61 h222
M  ZZC  62 h231
M  ZZC  63 h41
M  ZZC  64 h241
M  ZZC  65 h242
M  ZZM   1 1
M  ZZI   1 111
M  ZZM   2 3
M  ZZI   2 121
M  ZZM   3 7
M  ZZI   3 81
M  ZZM   4 10
M  ZZI   4 211
M  ZZM   5 1
M  ZZI   5 113
M  ZZM   6 1
M  ZZI   6 110
M  ZZM   7 1
M  ZZI   7 111
M  ZZM   8 1
M  ZZI   8 111
M  ZZM   9 1
M  ZZI   9 111
M  ZZM  10 3
M  ZZI  10 121
M  ZZM  11 7
M  ZZI  11 81
M  ZZM  12 10
M  ZZI  12 192
M  ZZM  13 1
M  ZZI  13 113
M  ZZM  14 3
M  ZZI  14 121
M  ZZM  15 7
M  ZZI  15 81
M  ZZM  16 10
M  ZZI  16 211
M  ZZM  17 1
M  ZZI  17 112
M  ZZM  18 37
M  ZZI  18 124
M  ZZM  19 37
M  ZZI  19 125
M  ZZM  20 37
M  ZZI  20 125
M  ZZM  21 37
M  ZZI  21 124
M  ZZM  22 63
M  ZZI  22 104
M  ZZM  23 64
M  ZZI  23 105
M  ZZM  24 1
M  ZZI  24 111
M  ZZM  25 66
M  ZZI  25 222
M  ZZM  26 63
M  ZZI  26 104
M  ZZM  27 44
M  ZZI  27 248
M  ZZM  28 37
M  ZZI  28 125
M  ZZM  29 37
M  ZZI  29 125
M  ZZM  30 1
M  ZZI  30 112
M  ZZM  31 1
M  ZZI  31 113
M  ZZM  32 6
M  ZZI  32 60
M  ZZM  33 1
M  ZZI  33 112
M  ZZM  34 5
M  ZZI  34 1
M  ZZM  35 5
M  ZZI  35 1
M  ZZM  36 5
M  ZZI  36 1
M  ZZM  37 28
M  ZZI  37 11
M  ZZM  38 5
M  ZZI  38 1
M  ZZM  39 5
M  ZZI  39 1
M  ZZM  40 5
M  ZZI  40 1
M  ZZM  41 5
M  ZZI  41 1
M  ZZM  42 5
M  ZZI  42 1
M  ZZM  43 5
M  ZZI  43 1
M  ZZM  44 5
M  ZZI  44 1
M  ZZM  45 5
M  ZZI  45 1
M  ZZM  46 5
M  ZZI  46 1
M  ZZM  47 5
M  ZZI  47 1
M  ZZM  48 5
M  ZZI  48 1
M  ZZM  49 28
M  ZZI  49 11
M  ZZM  50 5
M  ZZI  50 1
M  ZZM  51 5
M  ZZI  51 1
M  ZZM  52 5
M  ZZI  52 1
M  ZZM  53 5
M  ZZI  53 1
M  ZZM  54 5
M  ZZI  54 1
M  ZZM  55 5
M  ZZI  55 1
M  ZZM  56 5
M  ZZI  56 1
M  ZZM  57 5
M  ZZI  57 1
M  ZZM  58 5
M  ZZI  58 1
M  ZZM  59 5
M  ZZI  59 1
M  ZZM  60 5
M  ZZI  60 1
M  ZZM  61 5
M  ZZI  61 1
M  ZZM  62 5
M  ZZI  62 1
M  ZZM  63 21
M  ZZI  63 20
M  ZZM  64 5
M  ZZI  64 1
M  ZZM  65 5
M  ZZI  65 1
M  END
> <IX>
1

> <NAME>
VHL_4BJX_1.pdb

> <Score>
-15.879982

> <Natom>
65

> <Nflex>
8

> <Hbond>
-4.8592

> <Hphob>
-6.276841

> <VwInt>
-32.238384

> <Dsolv>
17.55202

> <SolEl>
18.35968

> <Eintl>
4.627095

> <RecConf>
ND

> <projPath>
VHL_maps/

> <NAME_>
VHL_4BJX_1.pdb

$$$$
