VHL_5F1H_8.pdb
  MOLSOFT 04032206423D

 70 73  0  0  1  0  0  0  0  0999 V2000
   18.7417   -5.3921   -5.9389 F   0  0  0  0  0  0  0  0  0  0  0  0
   17.7003   -5.9731   -5.2211 C   0  0  0  0  0  0  0  0  0  0  0  0
   16.8198   -5.0305   -4.4647 C   0  0  0  0  0  0  0  0  0  0  0  0
   15.7508   -5.3933   -3.9957 O   0  0  0  0  0  0  0  0  0  0  0  0
   17.2997   -3.7405   -4.3697 N   0  0  0  0  0  0  0  0  0  0  0  0
   16.4582   -2.6186   -3.9336 C   0  0  1  0  0  0  0  0  0  0  0  0
   16.6612   -2.1809   -2.4502 C   0  0  0  0  0  0  0  0  0  0  0  0
   15.6332   -1.1047   -2.0680 C   0  0  0  0  0  0  0  0  0  0  0  0
   16.4368   -3.3758   -1.5093 C   0  0  0  0  0  0  0  0  0  0  0  0
   18.0626   -1.6122   -2.1908 C   0  0  0  0  0  0  0  0  0  0  0  0
   16.7415   -1.5124   -4.9715 C   0  0  0  0  0  0  0  0  0  0  0  0
   17.8923   -1.1988   -5.2536 O   0  0  0  0  0  0  0  0  0  0  0  0
   15.6403   -0.9404   -5.6110 N   0  0  0  0  0  0  0  0  0  0  0  0
   15.8057   -0.0970   -6.7888 C   0  0  2  0  0  0  0  0  0  0  0  0
   16.1195    1.3580   -6.4198 C   0  0  0  0  0  0  0  0  0  0  0  0
   15.3179    2.0929   -5.8589 O   0  0  0  0  0  0  0  0  0  0  0  0
   17.4020    1.7431   -6.7587 N   0  0  0  0  0  0  0  0  0  0  0  0
   17.9280    3.0660   -6.4676 C   0  0  0  0  0  0  0  0  0  0  0  0
   19.3303    3.2975   -6.9880 C   0  0  0  0  0  0  0  0  0  0  0  0
   20.2775    2.2829   -7.0395 C   0  0  0  0  0  0  0  0  0  0  0  0
   19.9334    1.0215   -6.6111 O   0  0  0  0  0  0  0  0  0  0  0  0
   21.5634    2.4849   -7.4962 C   0  0  0  0  0  0  0  0  0  0  0  0
   21.9698    3.7462   -7.8927 C   0  0  0  0  0  0  0  0  0  0  0  0
   23.3454    3.9453   -8.3168 C   0  0  0  0  0  0  0  0  0  0  0  0
   24.4771    4.2486   -7.5736 C   0  0  0  0  0  0  0  0  0  0  0  0
   24.5383    4.5094   -6.1174 C   0  0  0  0  0  0  0  0  0  0  0  0
   25.6549    4.2832   -8.2928 N   0  0  0  0  0  0  0  0  0  0  0  0
   25.4076    4.0260   -9.5577 C   0  0  0  0  0  0  0  0  0  0  0  0
   23.7759    3.7358   -9.9656 S   0  0  0  0  0  0  0  0  0  0  0  0
   21.0469    4.7861   -7.8408 C   0  0  0  0  0  0  0  0  0  0  0  0
   19.7469    4.5643   -7.3975 C   0  0  0  0  0  0  0  0  0  0  0  0
   14.4714   -0.2207   -7.5054 C   0  0  0  0  0  0  0  0  0  0  0  0
   13.4570   -0.4410   -6.3948 C   0  0  1  0  0  0  0  0  0  0  0  0
   12.3361   -1.1997   -6.8510 O   0  0  0  0  0  0  0  0  0  0  0  0
   14.2387   -1.2388   -5.3667 C   0  0  0  0  0  0  0  0  0  0  0  0
   17.1219   -7.2125   -5.8660 C   0  0  0  0  0  0  0  0  0  0  0  0
   18.0095   -7.3388   -4.6736 C   0  0  0  0  0  0  0  0  0  0  0  0
   18.2250   -3.5448   -4.7455 H   0  0  0  0  0  0  0  0  0  0  0  0
   15.4260   -2.9594   -4.0380 H   0  0  0  0  0  0  0  0  0  0  0  0
   15.7380   -0.2128   -2.6945 H   0  0  0  0  0  0  0  0  0  0  0  0
   15.7593   -0.7815   -1.0295 H   0  0  0  0  0  0  0  0  0  0  0  0
   14.6052   -1.4598   -2.1892 H   0  0  0  0  0  0  0  0  0  0  0  0
   16.5043   -3.0771   -0.4582 H   0  0  0  0  0  0  0  0  0  0  0  0
   17.1811   -4.1596   -1.6630 H   0  0  0  0  0  0  0  0  0  0  0  0
   15.4474   -3.8221   -1.6554 H   0  0  0  0  0  0  0  0  0  0  0  0
   18.2175   -1.3951   -1.1292 H   0  0  0  0  0  0  0  0  0  0  0  0
   18.2348   -0.6775   -2.7324 H   0  0  0  0  0  0  0  0  0  0  0  0
   18.8364   -2.3178   -2.4902 H   0  0  0  0  0  0  0  0  0  0  0  0
   16.6107   -0.4958   -7.4175 H   0  0  0  0  0  0  0  0  0  0  0  0
   18.0547    1.0369   -7.0941 H   0  0  0  0  0  0  0  0  0  0  0  0
   17.2335    3.7924   -6.9043 H   0  0  0  0  0  0  0  0  0  0  0  0
   17.9116    3.2030   -5.3810 H   0  0  0  0  0  0  0  0  0  0  0  0
   20.3792    0.3930   -7.2070 H   0  0  0  0  0  0  0  0  0  0  0  0
   22.2561    1.6525   -7.5318 H   0  0  0  0  0  0  0  0  0  0  0  0
   23.9521    5.3954   -5.8576 H   0  0  0  0  0  0  0  0  0  0  0  0
   25.5684    4.6783   -5.7899 H   0  0  0  0  0  0  0  0  0  0  0  0
   24.1462    3.6598   -5.5525 H   0  0  0  0  0  0  0  0  0  0  0  0
   26.1870    3.9983  -10.3058 H   0  0  0  0  0  0  0  0  0  0  0  0
   21.3380    5.7868   -8.1468 H   0  0  0  0  0  0  0  0  0  0  0  0
   19.0534    5.3999   -7.3694 H   0  0  0  0  0  0  0  0  0  0  0  0
   14.2214    0.6423   -8.1317 H   0  0  0  0  0  0  0  0  0  0  0  0
   14.5007   -1.1017   -8.1534 H   0  0  0  0  0  0  0  0  0  0  0  0
   13.1034    0.5066   -5.9739 H   0  0  0  0  0  0  0  0  0  0  0  0
   11.8703   -0.6819   -7.5331 H   0  0  0  0  0  0  0  0  0  0  0  0
   14.0668   -2.3139   -5.4746 H   0  0  0  0  0  0  0  0  0  0  0  0
   13.9647   -0.9553   -4.3478 H   0  0  0  0  0  0  0  0  0  0  0  0
   16.0731   -7.4334   -5.7339 H   0  0  0  0  0  0  0  0  0  0  0  0
   17.5287   -7.5497   -6.8080 H   0  0  0  0  0  0  0  0  0  0  0  0
   19.0016   -7.7328   -4.8467 H   0  0  0  0  0  0  0  0  0  0  0  0
   17.5518   -7.6397   -3.7418 H   0  0  0  0  0  0  0  0  0  0  0  0
  2  1  1  0  0  0  0
  2 36  1  0  0  0  0
  2  3  1  0  0  0  0
  2 37  1  0  0  0  0
  3  4  2  0  0  0  0
  3  5  1  0  0  0  0
  5 38  1  0  0  0  0
  6  5  1  0  0  0  0
  6 39  1  0  0  0  0
  6  7  1  0  0  0  0
  6 11  1  0  0  0  0
  7  8  1  0  0  0  0
  7  9  1  0  0  0  0
  7 10  1  0  0  0  0
  8 40  1  0  0  0  0
  8 41  1  0  0  0  0
  8 42  1  0  0  0  0
  9 43  1  0  0  0  0
  9 44  1  0  0  0  0
  9 45  1  0  0  0  0
 10 46  1  0  0  0  0
 10 47  1  0  0  0  0
 10 48  1  0  0  0  0
 11 12  2  0  0  0  0
 11 13  1  0  0  0  0
 13 35  1  0  0  0  0
 14 13  1  0  0  0  0
 14 32  1  0  0  0  0
 14 49  1  0  0  0  0
 14 15  1  0  0  0  0
 15 16  2  0  0  0  0
 15 17  1  0  0  0  0
 17 50  1  0  0  0  0
 17 18  1  0  0  0  0
 18 51  1  0  0  0  0
 18 52  1  0  0  0  0
 18 19  1  0  0  0  0
 19 20  2  0  0  0  0
 19 31  1  0  0  0  0
 20 21  1  0  0  0  0
 20 22  1  0  0  0  0
 21 53  1  0  0  0  0
 22 54  1  0  0  0  0
 22 23  2  0  0  0  0
 23 30  1  0  0  0  0
 23 24  1  0  0  0  0
 24 25  2  0  0  0  0
 24 29  1  0  0  0  0
 25 26  1  0  0  0  0
 25 27  1  0  0  0  0
 26 55  1  0  0  0  0
 26 56  1  0  0  0  0
 26 57  1  0  0  0  0
 27 28  2  0  0  0  0
 28 58  1  0  0  0  0
 28 29  1  0  0  0  0
 30 59  1  0  0  0  0
 30 31  2  0  0  0  0
 31 60  1  0  0  0  0
 33 32  1  0  0  0  0
 32 61  1  0  0  0  0
 32 62  1  0  0  0  0
 33 35  1  0  0  0  0
 33 63  1  0  0  0  0
 33 34  1  0  0  0  0
 34 64  1  0  0  0  0
 35 65  1  0  0  0  0
 35 66  1  0  0  0  0
 36 67  1  0  0  0  0
 36 68  1  0  0  0  0
 36 37  1  0  0  0  0
 37 69  1  0  0  0  0
 37 70  1  0  0  0  0
M  ZZC   1 f1
M  ZZC   2 c1
M  ZZC   3 c2
M  ZZC   4 o1
M  ZZC   5 n1
M  ZZC   6 c3
M  ZZC   7 c4
M  ZZC   8 c5
M  ZZC   9 c6
M  ZZC  10 c7
M  ZZC  11 c8
M  ZZC  12 o2
M  ZZC  13 n2
M  ZZC  14 c9
M  ZZC  15 c10
M  ZZC  16 o3
M  ZZC  17 n3
M  ZZC  18 c11
M  ZZC  19 c12
M  ZZC  20 c13
M  ZZC  21 o4
M  ZZC  22 c14
M  ZZC  23 c15
M  ZZC  24 c16
M  ZZC  25 c17
M  ZZC  26 c18
M  ZZC  27 n4
M  ZZC  28 c19
M  ZZC  29 s1
M  ZZC  30 c20
M  ZZC  31 c21
M  ZZC  32 c22
M  ZZC  33 c23
M  ZZC  34 o5
M  ZZC  35 c24
M  ZZC  36 c25
M  ZZC  37 c26
M  ZZC  38 h11
M  ZZC  39 h31
M  ZZC  40 h51
M  ZZC  41 h52
M  ZZC  42 h53
M  ZZC  43 h61
M  ZZC  44 h62
M  ZZC  45 h63
M  ZZC  46 h71
M  ZZC  47 h72
M  ZZC  48 h73
M  ZZC  49 h91
M  ZZC  50 h01
M  ZZC  51 h111
M  ZZC  52 h112
M  ZZC  53 h41
M  ZZC  54 h141
M  ZZC  55 h181
M  ZZC  56 h182
M  ZZC  57 h183
M  ZZC  58 h191
M  ZZC  59 h201
M  ZZC  60 h211
M  ZZC  61 h221
M  ZZC  62 h222
M  ZZC  63 h231
M  ZZC  64 h02
M  ZZC  65 h241
M  ZZC  66 h242
M  ZZC  67 h251
M  ZZC  68 h252
M  ZZC  69 h261
M  ZZC  70 h262
M  ZZM   1 11
M  ZZI   1 90
M  ZZM   2 22
M  ZZI   2 109
M  ZZM   3 3
M  ZZI   3 121
M  ZZM   4 7
M  ZZI   4 81
M  ZZM   5 10
M  ZZI   5 211
M  ZZM   6 1
M  ZZI   6 113
M  ZZM   7 1
M  ZZI   7 110
M  ZZM   8 1
M  ZZI   8 111
M  ZZM   9 1
M  ZZI   9 111
M  ZZM  10 1
M  ZZI  10 111
M  ZZM  11 3
M  ZZI  11 121
M  ZZM  12 7
M  ZZI  12 81
M  ZZM  13 10
M  ZZI  13 192
M  ZZM  14 1
M  ZZI  14 113
M  ZZM  15 3
M  ZZI  15 121
M  ZZM  16 7
M  ZZI  16 81
M  ZZM  17 10
M  ZZI  17 211
M  ZZM  18 1
M  ZZI  18 112
M  ZZM  19 37
M  ZZI  19 124
M  ZZM  20 37
M  ZZI  20 124
M  ZZM  21 6
M  ZZI  21 62
M  ZZM  22 37
M  ZZI  22 125
M  ZZM  23 37
M  ZZI  23 124
M  ZZM  24 63
M  ZZI  24 104
M  ZZM  25 64
M  ZZI  25 105
M  ZZM  26 1
M  ZZI  26 111
M  ZZM  27 66
M  ZZI  27 222
M  ZZM  28 63
M  ZZI  28 104
M  ZZM  29 44
M  ZZI  29 248
M  ZZM  30 37
M  ZZI  30 125
M  ZZM  31 37
M  ZZI  31 125
M  ZZM  32 1
M  ZZI  32 112
M  ZZM  33 1
M  ZZI  33 113
M  ZZM  34 6
M  ZZI  34 60
M  ZZM  35 1
M  ZZI  35 112
M  ZZM  36 22
M  ZZI  36 109
M  ZZM  37 22
M  ZZI  37 109
M  ZZM  38 28
M  ZZI  38 11
M  ZZM  39 5
M  ZZI  39 1
M  ZZM  40 5
M  ZZI  40 1
M  ZZM  41 5
M  ZZI  41 1
M  ZZM  42 5
M  ZZI  42 1
M  ZZM  43 5
M  ZZI  43 1
M  ZZM  44 5
M  ZZI  44 1
M  ZZM  45 5
M  ZZI  45 1
M  ZZM  46 5
M  ZZI  46 1
M  ZZM  47 5
M  ZZI  47 1
M  ZZM  48 5
M  ZZI  48 1
M  ZZM  49 5
M  ZZI  49 1
M  ZZM  50 28
M  ZZI  50 11
M  ZZM  51 5
M  ZZI  51 1
M  ZZM  52 5
M  ZZI  52 1
M  ZZM  53 29
M  ZZI  53 27
M  ZZM  54 5
M  ZZI  54 1
M  ZZM  55 5
M  ZZI  55 1
M  ZZM  56 5
M  ZZI  56 1
M  ZZM  57 5
M  ZZI  57 1
M  ZZM  58 5
M  ZZI  58 1
M  ZZM  59 5
M  ZZI  59 1
M  ZZM  60 5
M  ZZI  60 1
M  ZZM  61 5
M  ZZI  61 1
M  ZZM  62 5
M  ZZI  62 1
M  ZZM  63 5
M  ZZI  63 1
M  ZZM  64 21
M  ZZI  64 20
M  ZZM  65 5
M  ZZI  65 1
M  ZZM  66 5
M  ZZI  66 1
M  ZZM  67 5
M  ZZI  67 1
M  ZZM  68 5
M  ZZI  68 1
M  ZZM  69 5
M  ZZI  69 1
M  ZZM  70 5
M  ZZI  70 1
M  END
> <IX>
1

> <NAME>
VHL_5F1H_8.pdb

> <Score>
-22.140594

> <Natom>
70

> <Nflex>
9

> <Hbond>
-8.409125

> <Hphob>
-6.217022

> <VwInt>
-33.428631

> <Dsolv>
20.483255

> <SolEl>
15.872491

> <Eintl>
9.150406

> <RecConf>
ND

> <projPath>
VHL_maps/

> <NAME_>
VHL_5F1H_8.pdb

$$$$
