VHL_3MXF_2.pdb
  MOLSOFT 04032206373D

 65 67  0  0  1  0  0  0  0  0999 V2000
   18.0603   -7.0322   -5.1188 C   0  0  0  0  0  0  0  0  0  0  0  0
   16.9152   -6.0600   -5.0666 C   0  0  0  0  0  0  0  0  0  0  0  0
   15.8386   -6.3346   -5.5679 O   0  0  0  0  0  0  0  0  0  0  0  0
   17.2049   -4.8975   -4.3815 N   0  0  0  0  0  0  0  0  0  0  0  0
   16.2658   -3.7798   -4.2098 C   0  0  1  0  0  0  0  0  0  0  0  0
   15.8556   -3.5634   -2.7213 C   0  0  0  0  0  0  0  0  0  0  0  0
   14.7215   -2.5369   -2.5849 C   0  0  0  0  0  0  0  0  0  0  0  0
   17.0269   -3.0782   -1.8547 C   0  0  0  0  0  0  0  0  0  0  0  0
   15.3301   -4.8882   -2.1538 C   0  0  0  0  0  0  0  0  0  0  0  0
   16.9638   -2.5765   -4.8670 C   0  0  0  0  0  0  0  0  0  0  0  0
   18.1671   -2.3958   -4.7376 O   0  0  0  0  0  0  0  0  0  0  0  0
   16.1914   -1.6738   -5.5944 N   0  0  0  0  0  0  0  0  0  0  0  0
   16.8262   -0.5831   -6.3218 C   0  0  2  0  0  0  0  0  0  0  0  0
   17.3618    0.5082   -5.3975 C   0  0  0  0  0  0  0  0  0  0  0  0
   16.9148    0.7102   -4.2762 O   0  0  0  0  0  0  0  0  0  0  0  0
   18.3250    1.2962   -6.0043 N   0  0  0  0  0  0  0  0  0  0  0  0
   18.6909    2.5971   -5.4802 C   0  0  0  0  0  0  0  0  0  0  0  0
   17.6906    3.6075   -5.9739 C   0  0  0  0  0  0  0  0  0  0  0  0
   17.9229    4.3499   -7.1288 C   0  0  0  0  0  0  0  0  0  0  0  0
   16.8981    5.0803   -7.7094 C   0  0  0  0  0  0  0  0  0  0  0  0
   15.6224    5.0451   -7.1592 C   0  0  0  0  0  0  0  0  0  0  0  0
   14.4801    5.5996   -7.8523 C   0  0  0  0  0  0  0  0  0  0  0  0
   13.4511    4.9390   -8.5078 C   0  0  0  0  0  0  0  0  0  0  0  0
   13.3324    3.4784   -8.7366 C   0  0  0  0  0  0  0  0  0  0  0  0
   12.4378    5.7558   -8.9551 N   0  0  0  0  0  0  0  0  0  0  0  0
   12.7460    7.0073   -8.6943 C   0  0  0  0  0  0  0  0  0  0  0  0
   14.2242    7.2923   -7.8967 S   0  0  0  0  0  0  0  0  0  0  0  0
   15.4165    4.3896   -5.9558 C   0  0  0  0  0  0  0  0  0  0  0  0
   16.4458    3.6956   -5.3595 C   0  0  0  0  0  0  0  0  0  0  0  0
   15.7339   -0.0321   -7.2384 C   0  0  0  0  0  0  0  0  0  0  0  0
   14.4560   -0.3967   -6.5052 C   0  0  1  0  0  0  0  0  0  0  0  0
   13.3410   -0.4502   -7.3908 O   0  0  0  0  0  0  0  0  0  0  0  0
   14.7961   -1.7668   -5.9545 C   0  0  0  0  0  0  0  0  0  0  0  0
   19.0186   -6.5080   -5.1826 H   0  0  0  0  0  0  0  0  0  0  0  0
   17.9554   -7.6692   -6.0017 H   0  0  0  0  0  0  0  0  0  0  0  0
   18.0368   -7.6543   -4.2210 H   0  0  0  0  0  0  0  0  0  0  0  0
   18.1573   -4.7635   -4.0592 H   0  0  0  0  0  0  0  0  0  0  0  0
   15.3671   -4.0214   -4.7709 H   0  0  0  0  0  0  0  0  0  0  0  0
   15.0222   -1.5571   -2.9705 H   0  0  0  0  0  0  0  0  0  0  0  0
   14.4401   -2.3893   -1.5380 H   0  0  0  0  0  0  0  0  0  0  0  0
   13.8294   -2.8339   -3.1436 H   0  0  0  0  0  0  0  0  0  0  0  0
   16.7420   -3.0107   -0.7998 H   0  0  0  0  0  0  0  0  0  0  0  0
   17.3745   -2.0853   -2.1564 H   0  0  0  0  0  0  0  0  0  0  0  0
   17.8776   -3.7551   -1.9120 H   0  0  0  0  0  0  0  0  0  0  0  0
   14.9965   -4.7703   -1.1198 H   0  0  0  0  0  0  0  0  0  0  0  0
   16.0961   -5.6661   -2.1625 H   0  0  0  0  0  0  0  0  0  0  0  0
   14.4794   -5.2630   -2.7317 H   0  0  0  0  0  0  0  0  0  0  0  0
   17.6546   -0.9810   -6.9052 H   0  0  0  0  0  0  0  0  0  0  0  0
   18.6906    1.0242   -6.9123 H   0  0  0  0  0  0  0  0  0  0  0  0
   18.7104    2.5689   -4.3850 H   0  0  0  0  0  0  0  0  0  0  0  0
   19.7010    2.8328   -5.8308 H   0  0  0  0  0  0  0  0  0  0  0  0
   18.8926    4.3194   -7.6171 H   0  0  0  0  0  0  0  0  0  0  0  0
   17.0861    5.6296   -8.6274 H   0  0  0  0  0  0  0  0  0  0  0  0
   12.4452    3.2513   -9.3343 H   0  0  0  0  0  0  0  0  0  0  0  0
   13.2369    2.9357   -7.7922 H   0  0  0  0  0  0  0  0  0  0  0  0
   14.2096    3.0889   -9.2601 H   0  0  0  0  0  0  0  0  0  0  0  0
   12.1038    7.8292   -8.9560 H   0  0  0  0  0  0  0  0  0  0  0  0
   14.4317    4.3750   -5.4962 H   0  0  0  0  0  0  0  0  0  0  0  0
   16.2421    3.1510   -4.4423 H   0  0  0  0  0  0  0  0  0  0  0  0
   15.8045    1.0436   -7.4309 H   0  0  0  0  0  0  0  0  0  0  0  0
   15.7632   -0.5292   -8.2157 H   0  0  0  0  0  0  0  0  0  0  0  0
   14.2538    0.3239   -5.7034 H   0  0  0  0  0  0  0  0  0  0  0  0
   12.5328   -0.3418   -6.8589 H   0  0  0  0  0  0  0  0  0  0  0  0
   14.7207   -2.5250   -6.7381 H   0  0  0  0  0  0  0  0  0  0  0  0
   14.1525   -2.0674   -5.1287 H   0  0  0  0  0  0  0  0  0  0  0  0
  1 34  1  0  0  0  0
  1 35  1  0  0  0  0
  1 36  1  0  0  0  0
  1  2  1  0  0  0  0
  2  3  2  0  0  0  0
  2  4  1  0  0  0  0
  4 37  1  0  0  0  0
  5  4  1  0  0  0  0
  5 38  1  0  0  0  0
  5  6  1  0  0  0  0
  5 10  1  0  0  0  0
  6  7  1  0  0  0  0
  6  8  1  0  0  0  0
  6  9  1  0  0  0  0
  7 39  1  0  0  0  0
  7 40  1  0  0  0  0
  7 41  1  0  0  0  0
  8 42  1  0  0  0  0
  8 43  1  0  0  0  0
  8 44  1  0  0  0  0
  9 45  1  0  0  0  0
  9 46  1  0  0  0  0
  9 47  1  0  0  0  0
 10 11  2  0  0  0  0
 10 12  1  0  0  0  0
 12 33  1  0  0  0  0
 13 12  1  0  0  0  0
 13 30  1  0  0  0  0
 13 48  1  0  0  0  0
 13 14  1  0  0  0  0
 14 15  2  0  0  0  0
 14 16  1  0  0  0  0
 16 49  1  0  0  0  0
 16 17  1  0  0  0  0
 17 50  1  0  0  0  0
 17 51  1  0  0  0  0
 17 18  1  0  0  0  0
 18 19  1  0  0  0  0
 18 29  2  0  0  0  0
 19 52  1  0  0  0  0
 19 20  2  0  0  0  0
 20 53  1  0  0  0  0
 20 21  1  0  0  0  0
 21 28  2  0  0  0  0
 21 22  1  0  0  0  0
 22 23  2  0  0  0  0
 22 27  1  0  0  0  0
 23 24  1  0  0  0  0
 23 25  1  0  0  0  0
 24 54  1  0  0  0  0
 24 55  1  0  0  0  0
 24 56  1  0  0  0  0
 25 26  2  0  0  0  0
 26 57  1  0  0  0  0
 26 27  1  0  0  0  0
 28 58  1  0  0  0  0
 28 29  1  0  0  0  0
 29 59  1  0  0  0  0
 31 30  1  0  0  0  0
 30 60  1  0  0  0  0
 30 61  1  0  0  0  0
 31 33  1  0  0  0  0
 31 62  1  0  0  0  0
 31 32  1  0  0  0  0
 32 63  1  0  0  0  0
 33 64  1  0  0  0  0
 33 65  1  0  0  0  0
M  ZZC   1 c1
M  ZZC   2 c2
M  ZZC   3 o1
M  ZZC   4 n1
M  ZZC   5 c3
M  ZZC   6 c4
M  ZZC   7 c5
M  ZZC   8 c6
M  ZZC   9 c7
M  ZZC  10 c8
M  ZZC  11 o2
M  ZZC  12 n2
M  ZZC  13 c9
M  ZZC  14 c10
M  ZZC  15 o3
M  ZZC  16 n3
M  ZZC  17 c11
M  ZZC  18 c12
M  ZZC  19 c13
M  ZZC  20 c14
M  ZZC  21 c15
M  ZZC  22 c16
M  ZZC  23 c17
M  ZZC  24 c18
M  ZZC  25 n4
M  ZZC  26 c19
M  ZZC  27 s1
M  ZZC  28 c20
M  ZZC  29 c21
M  ZZC  30 c22
M  ZZC  31 c23
M  ZZC  32 o4
M  ZZC  33 c24
M  ZZC  34 h11
M  ZZC  35 h12
M  ZZC  36 h13
M  ZZC  37 h01
M  ZZC  38 h31
M  ZZC  39 h51
M  ZZC  40 h52
M  ZZC  41 h53
M  ZZC  42 h61
M  ZZC  43 h62
M  ZZC  44 h63
M  ZZC  45 h71
M  ZZC  46 h72
M  ZZC  47 h73
M  ZZC  48 h91
M  ZZC  49 h02
M  ZZC  50 h111
M  ZZC  51 h112
M  ZZC  52 h131
M  ZZC  53 h141
M  ZZC  54 h181
M  ZZC  55 h182
M  ZZC  56 h183
M  ZZC  57 h191
M  ZZC  58 h201
M  ZZC  59 h211
M  ZZC  60 h221
M  ZZC  61 h222
M  ZZC  62 h231
M  ZZC  63 h41
M  ZZC  64 h241
M  ZZC  65 h242
M  ZZM   1 1
M  ZZI   1 111
M  ZZM   2 3
M  ZZI   2 121
M  ZZM   3 7
M  ZZI   3 81
M  ZZM   4 10
M  ZZI   4 211
M  ZZM   5 1
M  ZZI   5 113
M  ZZM   6 1
M  ZZI   6 110
M  ZZM   7 1
M  ZZI   7 111
M  ZZM   8 1
M  ZZI   8 111
M  ZZM   9 1
M  ZZI   9 111
M  ZZM  10 3
M  ZZI  10 121
M  ZZM  11 7
M  ZZI  11 81
M  ZZM  12 10
M  ZZI  12 192
M  ZZM  13 1
M  ZZI  13 113
M  ZZM  14 3
M  ZZI  14 121
M  ZZM  15 7
M  ZZI  15 81
M  ZZM  16 10
M  ZZI  16 211
M  ZZM  17 1
M  ZZI  17 112
M  ZZM  18 37
M  ZZI  18 124
M  ZZM  19 37
M  ZZI  19 125
M  ZZM  20 37
M  ZZI  20 125
M  ZZM  21 37
M  ZZI  21 124
M  ZZM  22 63
M  ZZI  22 104
M  ZZM  23 64
M  ZZI  23 105
M  ZZM  24 1
M  ZZI  24 111
M  ZZM  25 66
M  ZZI  25 222
M  ZZM  26 63
M  ZZI  26 104
M  ZZM  27 44
M  ZZI  27 248
M  ZZM  28 37
M  ZZI  28 125
M  ZZM  29 37
M  ZZI  29 125
M  ZZM  30 1
M  ZZI  30 112
M  ZZM  31 1
M  ZZI  31 113
M  ZZM  32 6
M  ZZI  32 60
M  ZZM  33 1
M  ZZI  33 112
M  ZZM  34 5
M  ZZI  34 1
M  ZZM  35 5
M  ZZI  35 1
M  ZZM  36 5
M  ZZI  36 1
M  ZZM  37 28
M  ZZI  37 11
M  ZZM  38 5
M  ZZI  38 1
M  ZZM  39 5
M  ZZI  39 1
M  ZZM  40 5
M  ZZI  40 1
M  ZZM  41 5
M  ZZI  41 1
M  ZZM  42 5
M  ZZI  42 1
M  ZZM  43 5
M  ZZI  43 1
M  ZZM  44 5
M  ZZI  44 1
M  ZZM  45 5
M  ZZI  45 1
M  ZZM  46 5
M  ZZI  46 1
M  ZZM  47 5
M  ZZI  47 1
M  ZZM  48 5
M  ZZI  48 1
M  ZZM  49 28
M  ZZI  49 11
M  ZZM  50 5
M  ZZI  50 1
M  ZZM  51 5
M  ZZI  51 1
M  ZZM  52 5
M  ZZI  52 1
M  ZZM  53 5
M  ZZI  53 1
M  ZZM  54 5
M  ZZI  54 1
M  ZZM  55 5
M  ZZI  55 1
M  ZZM  56 5
M  ZZI  56 1
M  ZZM  57 5
M  ZZI  57 1
M  ZZM  58 5
M  ZZI  58 1
M  ZZM  59 5
M  ZZI  59 1
M  ZZM  60 5
M  ZZI  60 1
M  ZZM  61 5
M  ZZI  61 1
M  ZZM  62 5
M  ZZI  62 1
M  ZZM  63 21
M  ZZI  63 20
M  ZZM  64 5
M  ZZI  64 1
M  ZZM  65 5
M  ZZI  65 1
M  END
> <IX>
1

> <NAME>
VHL_3MXF_2.pdb

> <Score>
-7.524142

> <Natom>
65

> <Nflex>
8

> <Hbond>
-6.246055

> <Hphob>
-6.853688

> <VwInt>
-28.332784

> <Dsolv>
21.619465

> <SolEl>
23.727667

> <Eintl>
7.547121

> <RecConf>
ND

> <projPath>
VHL_maps/

> <NAME_>
VHL_3MXF_2.pdb

$$$$
