VHL_4QNQ_21.pdb
  MOLSOFT 04032206403D

 68 70  0  0  1  0  0  0  0  0999 V2000
   19.0611   -6.2278   -5.8469 C   0  0  0  0  0  0  0  0  0  0  0  0
   17.7207   -5.5740   -5.6386 C   0  0  0  0  0  0  0  0  0  0  0  0
   16.6879   -6.1679   -5.9084 O   0  0  0  0  0  0  0  0  0  0  0  0
   17.7991   -4.2856   -5.1392 N   0  0  0  0  0  0  0  0  0  0  0  0
   16.6500   -3.3956   -4.9511 C   0  0  1  0  0  0  0  0  0  0  0  0
   16.0021   -3.4988   -3.5290 C   0  0  0  0  0  0  0  0  0  0  0  0
   15.7434   -4.9594   -3.1277 C   0  0  0  0  0  0  0  0  0  0  0  0
   16.8934   -2.8749   -2.4448 C   0  0  0  0  0  0  0  0  0  0  0  0
   14.6406   -2.7887   -3.5109 C   0  0  0  0  0  0  0  0  0  0  0  0
   17.1815   -1.9815   -5.2769 C   0  0  0  0  0  0  0  0  0  0  0  0
   18.2912   -1.6360   -4.8971 O   0  0  0  0  0  0  0  0  0  0  0  0
   16.3724   -1.0837   -5.9768 N   0  0  0  0  0  0  0  0  0  0  0  0
   16.8541    0.2742   -6.2571 C   0  0  2  0  0  0  0  0  0  0  0  0
   16.7913    1.2280   -5.0625 C   0  0  0  0  0  0  0  0  0  0  0  0
   17.5042    2.2198   -5.0062 O   0  0  0  0  0  0  0  0  0  0  0  0
   15.7599    0.9792   -4.1767 N   0  0  0  0  0  0  0  0  0  0  0  0
   15.4383    1.8633   -3.0689 C   0  0  1  0  0  0  0  0  0  0  0  0
   14.3270    2.8308   -3.4796 C   0  0  0  0  0  0  0  0  0  0  0  0
   15.1307    1.0595   -1.8198 C   0  0  0  0  0  0  0  0  0  0  0  0
   13.8450    0.6383   -1.4780 C   0  0  0  0  0  0  0  0  0  0  0  0
   13.6147   -0.0873   -0.3202 C   0  0  0  0  0  0  0  0  0  0  0  0
   14.6613   -0.4164    0.5337 C   0  0  0  0  0  0  0  0  0  0  0  0
   14.4206   -1.1417    1.7722 C   0  0  0  0  0  0  0  0  0  0  0  0
   14.8518   -2.3908    2.1972 C   0  0  0  0  0  0  0  0  0  0  0  0
   15.7171   -3.3341    1.4576 C   0  0  0  0  0  0  0  0  0  0  0  0
   14.3933   -2.7772    3.4414 N   0  0  0  0  0  0  0  0  0  0  0  0
   13.6671   -1.8145    3.9618 C   0  0  0  0  0  0  0  0  0  0  0  0
   13.4934   -0.4054    3.0160 S   0  0  0  0  0  0  0  0  0  0  0  0
   15.9468   -0.0266    0.1832 C   0  0  0  0  0  0  0  0  0  0  0  0
   16.1756    0.6957   -0.9745 C   0  0  0  0  0  0  0  0  0  0  0  0
   15.9384    0.8022   -7.3561 C   0  0  0  0  0  0  0  0  0  0  0  0
   15.3520   -0.4451   -7.9819 C   0  0  1  0  0  0  0  0  0  0  0  0
   16.2250   -0.9616   -8.9973 O   0  0  0  0  0  0  0  0  0  0  0  0
   15.2473   -1.4233   -6.8246 C   0  0  0  0  0  0  0  0  0  0  0  0
   19.8826   -5.5246   -5.6926 H   0  0  0  0  0  0  0  0  0  0  0  0
   19.1228   -6.6003   -6.8727 H   0  0  0  0  0  0  0  0  0  0  0  0
   19.1664   -7.0665   -5.1539 H   0  0  0  0  0  0  0  0  0  0  0  0
   18.7157   -3.8937   -4.9501 H   0  0  0  0  0  0  0  0  0  0  0  0
   15.9283   -3.6902   -5.7052 H   0  0  0  0  0  0  0  0  0  0  0  0
   15.2210   -5.0275   -2.1678 H   0  0  0  0  0  0  0  0  0  0  0  0
   16.6700   -5.5297   -3.0216 H   0  0  0  0  0  0  0  0  0  0  0  0
   15.1191   -5.4668   -3.8647 H   0  0  0  0  0  0  0  0  0  0  0  0
   16.4594   -3.0081   -1.4502 H   0  0  0  0  0  0  0  0  0  0  0  0
   17.0276   -1.7998   -2.5896 H   0  0  0  0  0  0  0  0  0  0  0  0
   17.8848   -3.3335   -2.4274 H   0  0  0  0  0  0  0  0  0  0  0  0
   14.7439   -1.7156   -3.7021 H   0  0  0  0  0  0  0  0  0  0  0  0
   14.1430   -2.8994   -2.5429 H   0  0  0  0  0  0  0  0  0  0  0  0
   13.9669   -3.1775   -4.2728 H   0  0  0  0  0  0  0  0  0  0  0  0
   17.8946    0.2144   -6.5937 H   0  0  0  0  0  0  0  0  0  0  0  0
   15.1821    0.1625   -4.3276 H   0  0  0  0  0  0  0  0  0  0  0  0
   16.3206    2.4787   -2.8595 H   0  0  0  0  0  0  0  0  0  0  0  0
   14.6547    3.4684   -4.3068 H   0  0  0  0  0  0  0  0  0  0  0  0
   14.0337    3.4818   -2.6496 H   0  0  0  0  0  0  0  0  0  0  0  0
   13.4344    2.3031   -3.8286 H   0  0  0  0  0  0  0  0  0  0  0  0
   12.9978    0.8762   -2.1115 H   0  0  0  0  0  0  0  0  0  0  0  0
   12.6000   -0.3950   -0.0849 H   0  0  0  0  0  0  0  0  0  0  0  0
   15.1799   -3.7574    0.6046 H   0  0  0  0  0  0  0  0  0  0  0  0
   16.0289   -4.1685    2.0915 H   0  0  0  0  0  0  0  0  0  0  0  0
   16.6109   -2.8262    1.0846 H   0  0  0  0  0  0  0  0  0  0  0  0
   13.2070   -1.8995    4.9356 H   0  0  0  0  0  0  0  0  0  0  0  0
   16.7890   -0.2701    0.8242 H   0  0  0  0  0  0  0  0  0  0  0  0
   17.1953    0.9848   -1.2139 H   0  0  0  0  0  0  0  0  0  0  0  0
   15.1346    1.4199   -6.9392 H   0  0  0  0  0  0  0  0  0  0  0  0
   16.4909    1.4153   -8.0745 H   0  0  0  0  0  0  0  0  0  0  0  0
   14.3822   -0.2405   -8.4333 H   0  0  0  0  0  0  0  0  0  0  0  0
   17.1383   -0.9140   -8.6559 H   0  0  0  0  0  0  0  0  0  0  0  0
   15.2929   -2.4602   -7.1641 H   0  0  0  0  0  0  0  0  0  0  0  0
   14.3338   -1.2569   -6.2442 H   0  0  0  0  0  0  0  0  0  0  0  0
  1 35  1  0  0  0  0
  1 36  1  0  0  0  0
  1 37  1  0  0  0  0
  1  2  1  0  0  0  0
  2  3  2  0  0  0  0
  2  4  1  0  0  0  0
  4 38  1  0  0  0  0
  5  4  1  0  0  0  0
  5 39  1  0  0  0  0
  5  6  1  0  0  0  0
  5 10  1  0  0  0  0
  6  7  1  0  0  0  0
  6  8  1  0  0  0  0
  6  9  1  0  0  0  0
  7 40  1  0  0  0  0
  7 41  1  0  0  0  0
  7 42  1  0  0  0  0
  8 43  1  0  0  0  0
  8 44  1  0  0  0  0
  8 45  1  0  0  0  0
  9 46  1  0  0  0  0
  9 47  1  0  0  0  0
  9 48  1  0  0  0  0
 10 11  2  0  0  0  0
 10 12  1  0  0  0  0
 12 34  1  0  0  0  0
 13 12  1  0  0  0  0
 13 31  1  0  0  0  0
 13 49  1  0  0  0  0
 13 14  1  0  0  0  0
 14 15  2  0  0  0  0
 14 16  1  0  0  0  0
 16 50  1  0  0  0  0
 17 16  1  0  0  0  0
 17 51  1  0  0  0  0
 17 18  1  0  0  0  0
 17 19  1  0  0  0  0
 18 52  1  0  0  0  0
 18 53  1  0  0  0  0
 18 54  1  0  0  0  0
 19 20  1  0  0  0  0
 19 30  2  0  0  0  0
 20 55  1  0  0  0  0
 20 21  2  0  0  0  0
 21 56  1  0  0  0  0
 21 22  1  0  0  0  0
 22 29  2  0  0  0  0
 22 23  1  0  0  0  0
 23 24  2  0  0  0  0
 23 28  1  0  0  0  0
 24 25  1  0  0  0  0
 24 26  1  0  0  0  0
 25 57  1  0  0  0  0
 25 58  1  0  0  0  0
 25 59  1  0  0  0  0
 26 27  2  0  0  0  0
 27 60  1  0  0  0  0
 27 28  1  0  0  0  0
 29 61  1  0  0  0  0
 29 30  1  0  0  0  0
 30 62  1  0  0  0  0
 32 31  1  0  0  0  0
 31 63  1  0  0  0  0
 31 64  1  0  0  0  0
 32 34  1  0  0  0  0
 32 65  1  0  0  0  0
 32 33  1  0  0  0  0
 33 66  1  0  0  0  0
 34 67  1  0  0  0  0
 34 68  1  0  0  0  0
M  ZZC   1 c1
M  ZZC   2 c2
M  ZZC   3 o1
M  ZZC   4 n1
M  ZZC   5 c3
M  ZZC   6 c4
M  ZZC   7 c5
M  ZZC   8 c6
M  ZZC   9 c7
M  ZZC  10 c8
M  ZZC  11 o2
M  ZZC  12 n2
M  ZZC  13 c9
M  ZZC  14 c10
M  ZZC  15 o3
M  ZZC  16 n3
M  ZZC  17 c11
M  ZZC  18 c12
M  ZZC  19 c13
M  ZZC  20 c14
M  ZZC  21 c15
M  ZZC  22 c16
M  ZZC  23 c17
M  ZZC  24 c18
M  ZZC  25 c19
M  ZZC  26 n4
M  ZZC  27 c20
M  ZZC  28 s1
M  ZZC  29 c21
M  ZZC  30 c22
M  ZZC  31 c23
M  ZZC  32 c24
M  ZZC  33 o4
M  ZZC  34 c25
M  ZZC  35 h11
M  ZZC  36 h12
M  ZZC  37 h13
M  ZZC  38 h01
M  ZZC  39 h31
M  ZZC  40 h51
M  ZZC  41 h52
M  ZZC  42 h53
M  ZZC  43 h61
M  ZZC  44 h62
M  ZZC  45 h63
M  ZZC  46 h71
M  ZZC  47 h72
M  ZZC  48 h73
M  ZZC  49 h91
M  ZZC  50 h02
M  ZZC  51 h111
M  ZZC  52 h121
M  ZZC  53 h122
M  ZZC  54 h123
M  ZZC  55 h141
M  ZZC  56 h151
M  ZZC  57 h191
M  ZZC  58 h192
M  ZZC  59 h193
M  ZZC  60 h201
M  ZZC  61 h211
M  ZZC  62 h221
M  ZZC  63 h231
M  ZZC  64 h232
M  ZZC  65 h241
M  ZZC  66 h41
M  ZZC  67 h251
M  ZZC  68 h252
M  ZZM   1 1
M  ZZI   1 111
M  ZZM   2 3
M  ZZI   2 121
M  ZZM   3 7
M  ZZI   3 81
M  ZZM   4 10
M  ZZI   4 211
M  ZZM   5 1
M  ZZI   5 113
M  ZZM   6 1
M  ZZI   6 110
M  ZZM   7 1
M  ZZI   7 111
M  ZZM   8 1
M  ZZI   8 111
M  ZZM   9 1
M  ZZI   9 111
M  ZZM  10 3
M  ZZI  10 121
M  ZZM  11 7
M  ZZI  11 81
M  ZZM  12 10
M  ZZI  12 192
M  ZZM  13 1
M  ZZI  13 113
M  ZZM  14 3
M  ZZI  14 121
M  ZZM  15 7
M  ZZI  15 81
M  ZZM  16 10
M  ZZI  16 211
M  ZZM  17 1
M  ZZI  17 113
M  ZZM  18 1
M  ZZI  18 111
M  ZZM  19 37
M  ZZI  19 124
M  ZZM  20 37
M  ZZI  20 125
M  ZZM  21 37
M  ZZI  21 125
M  ZZM  22 37
M  ZZI  22 124
M  ZZM  23 63
M  ZZI  23 104
M  ZZM  24 64
M  ZZI  24 105
M  ZZM  25 1
M  ZZI  25 111
M  ZZM  26 66
M  ZZI  26 222
M  ZZM  27 63
M  ZZI  27 104
M  ZZM  28 44
M  ZZI  28 248
M  ZZM  29 37
M  ZZI  29 125
M  ZZM  30 37
M  ZZI  30 125
M  ZZM  31 1
M  ZZI  31 112
M  ZZM  32 1
M  ZZI  32 113
M  ZZM  33 6
M  ZZI  33 60
M  ZZM  34 1
M  ZZI  34 112
M  ZZM  35 5
M  ZZI  35 1
M  ZZM  36 5
M  ZZI  36 1
M  ZZM  37 5
M  ZZI  37 1
M  ZZM  38 28
M  ZZI  38 11
M  ZZM  39 5
M  ZZI  39 1
M  ZZM  40 5
M  ZZI  40 1
M  ZZM  41 5
M  ZZI  41 1
M  ZZM  42 5
M  ZZI  42 1
M  ZZM  43 5
M  ZZI  43 1
M  ZZM  44 5
M  ZZI  44 1
M  ZZM  45 5
M  ZZI  45 1
M  ZZM  46 5
M  ZZI  46 1
M  ZZM  47 5
M  ZZI  47 1
M  ZZM  48 5
M  ZZI  48 1
M  ZZM  49 5
M  ZZI  49 1
M  ZZM  50 28
M  ZZI  50 11
M  ZZM  51 5
M  ZZI  51 1
M  ZZM  52 5
M  ZZI  52 1
M  ZZM  53 5
M  ZZI  53 1
M  ZZM  54 5
M  ZZI  54 1
M  ZZM  55 5
M  ZZI  55 1
M  ZZM  56 5
M  ZZI  56 1
M  ZZM  57 5
M  ZZI  57 1
M  ZZM  58 5
M  ZZI  58 1
M  ZZM  59 5
M  ZZI  59 1
M  ZZM  60 5
M  ZZI  60 1
M  ZZM  61 5
M  ZZI  61 1
M  ZZM  62 5
M  ZZI  62 1
M  ZZM  63 5
M  ZZI  63 1
M  ZZM  64 5
M  ZZI  64 1
M  ZZM  65 5
M  ZZI  65 1
M  ZZM  66 21
M  ZZI  66 20
M  ZZM  67 5
M  ZZI  67 1
M  ZZM  68 5
M  ZZI  68 1
M  END
> <IX>
1

> <NAME>
VHL_4QNQ_21.pdb

> <Score>
-26.105285

> <Natom>
68

> <Nflex>
8

> <Hbond>
-7.802743

> <Hphob>
-6.867591

> <VwInt>
-27.825418

> <Dsolv>
17.056204

> <SolEl>
9.300838

> <Eintl>
3.886088

> <RecConf>
ND

> <projPath>
VHL_maps/

> <NAME_>
VHL_4QNQ_21.pdb

$$$$
