VHL_1ERR_29.pdb
  MOLSOFT 04032206363D

 60 61  0  0  1  0  0  0  0  0999 V2000
   16.4640   -5.8752   -5.5351 O   0  0  0  0  0  0  0  0  0  0  0  0
   17.4864   -5.2558   -5.2863 C   0  0  0  0  0  0  0  0  0  0  0  0
   17.5340   -4.0394   -4.6230 N   0  0  0  0  0  0  0  0  0  0  0  0
   16.3417   -3.2817   -4.2266 C   0  0  1  0  0  0  0  0  0  0  0  0
   15.8075   -3.6153   -2.7945 C   0  0  0  0  0  0  0  0  0  0  0  0
   15.4246   -5.0975   -2.6886 C   0  0  0  0  0  0  0  0  0  0  0  0
   14.5346   -2.7973   -2.5256 C   0  0  0  0  0  0  0  0  0  0  0  0
   16.8199   -3.3173   -1.6753 C   0  0  0  0  0  0  0  0  0  0  0  0
   16.6676   -1.7828   -4.3950 C   0  0  0  0  0  0  0  0  0  0  0  0
   17.3474   -1.1744   -3.5799 O   0  0  0  0  0  0  0  0  0  0  0  0
   16.1867   -1.1462   -5.5379 N   0  0  0  0  0  0  0  0  0  0  0  0
   16.1873    0.3022   -5.6636 C   0  0  2  0  0  0  0  0  0  0  0  0
   14.8716    0.8164   -5.0650 C   0  0  0  0  0  0  0  0  0  0  0  0
   13.7795    0.4816   -5.5061 O   0  0  0  0  0  0  0  0  0  0  0  0
   15.0219    1.6418   -3.9631 N   0  0  0  0  0  0  0  0  0  0  0  0
   13.8636    2.1294   -3.2311 C   0  0  1  0  0  0  0  0  0  0  0  0
   13.5326    1.1961   -2.0666 C   0  0  0  0  0  0  0  0  0  0  0  0
   14.0072    3.5896   -2.8508 C   0  0  0  0  0  0  0  0  0  0  0  0
   13.7534    4.5637   -3.8144 C   0  0  0  0  0  0  0  0  0  0  0  0
   13.7875    5.9114   -3.5038 C   0  0  0  0  0  0  0  0  0  0  0  0
   14.0994    6.3182   -2.2166 C   0  0  0  0  0  0  0  0  0  0  0  0
   14.1045    7.7105   -1.8825 C   0  0  0  0  0  0  0  0  0  0  0  0
   14.1196    8.8364   -1.6012 N   0  0  0  0  0  0  0  0  0  0  0  0
   14.3998    5.3644   -1.2554 C   0  0  0  0  0  0  0  0  0  0  0  0
   14.3571    4.0163   -1.5694 C   0  0  0  0  0  0  0  0  0  0  0  0
   16.2487    0.5480   -7.1618 C   0  0  0  0  0  0  0  0  0  0  0  0
   15.5946   -0.6782   -7.7935 C   0  0  1  0  0  0  0  0  0  0  0  0
   16.2885   -1.0603   -8.9867 O   0  0  0  0  0  0  0  0  0  0  0  0
   15.6623   -1.7754   -6.7327 C   0  0  0  0  0  0  0  0  0  0  0  0
   18.8324   -5.7970   -5.6944 C   0  0  0  0  0  0  0  0  0  0  0  0
   18.4402   -3.6340   -4.4188 H   0  0  0  0  0  0  0  0  0  0  0  0
   15.5524   -3.5427   -4.9301 H   0  0  0  0  0  0  0  0  0  0  0  0
   14.7147   -5.3778   -3.4686 H   0  0  0  0  0  0  0  0  0  0  0  0
   14.9455   -5.3190   -1.7305 H   0  0  0  0  0  0  0  0  0  0  0  0
   16.2955   -5.7535   -2.7680 H   0  0  0  0  0  0  0  0  0  0  0  0
   13.7626   -3.0008   -3.2750 H   0  0  0  0  0  0  0  0  0  0  0  0
   14.7292   -1.7219   -2.5388 H   0  0  0  0  0  0  0  0  0  0  0  0
   14.1118   -3.0285   -1.5431 H   0  0  0  0  0  0  0  0  0  0  0  0
   16.9402   -2.2466   -1.4935 H   0  0  0  0  0  0  0  0  0  0  0  0
   17.8053   -3.7232   -1.9047 H   0  0  0  0  0  0  0  0  0  0  0  0
   16.5004   -3.7539   -0.7235 H   0  0  0  0  0  0  0  0  0  0  0  0
   17.0433    0.7442   -5.1409 H   0  0  0  0  0  0  0  0  0  0  0  0
   15.9465    1.8588   -3.6064 H   0  0  0  0  0  0  0  0  0  0  0  0
   13.0111    2.0696   -3.9087 H   0  0  0  0  0  0  0  0  0  0  0  0
   13.2846    0.1959   -2.4338 H   0  0  0  0  0  0  0  0  0  0  0  0
   12.6731    1.5600   -1.4935 H   0  0  0  0  0  0  0  0  0  0  0  0
   14.3779    1.0801   -1.3808 H   0  0  0  0  0  0  0  0  0  0  0  0
   13.4997    4.2710   -4.8293 H   0  0  0  0  0  0  0  0  0  0  0  0
   13.5552    6.6389   -4.2773 H   0  0  0  0  0  0  0  0  0  0  0  0
   14.6586    5.6632   -0.2431 H   0  0  0  0  0  0  0  0  0  0  0  0
   14.5862    3.3010   -0.7862 H   0  0  0  0  0  0  0  0  0  0  0  0
   15.7461    1.4727   -7.4645 H   0  0  0  0  0  0  0  0  0  0  0  0
   17.2927    0.6396   -7.4802 H   0  0  0  0  0  0  0  0  0  0  0  0
   14.5539   -0.4718   -8.0572 H   0  0  0  0  0  0  0  0  0  0  0  0
   17.2426   -0.9724   -8.8024 H   0  0  0  0  0  0  0  0  0  0  0  0
   16.2862   -2.6269   -7.0147 H   0  0  0  0  0  0  0  0  0  0  0  0
   14.6595   -2.1432   -6.5008 H   0  0  0  0  0  0  0  0  0  0  0  0
   18.7731   -6.2080   -6.7048 H   0  0  0  0  0  0  0  0  0  0  0  0
   19.1245   -6.5954   -5.0095 H   0  0  0  0  0  0  0  0  0  0  0  0
   19.5959   -5.0162   -5.6965 H   0  0  0  0  0  0  0  0  0  0  0  0
  1  2  2  0  0  0  0
  2  3  1  0  0  0  0
  2 30  1  0  0  0  0
  4  3  1  0  0  0  0
  3 31  1  0  0  0  0
  4  5  1  0  0  0  0
  4 32  1  0  0  0  0
  4  9  1  0  0  0  0
  5  6  1  0  0  0  0
  5  7  1  0  0  0  0
  5  8  1  0  0  0  0
  6 33  1  0  0  0  0
  6 34  1  0  0  0  0
  6 35  1  0  0  0  0
  7 36  1  0  0  0  0
  7 37  1  0  0  0  0
  7 38  1  0  0  0  0
  8 39  1  0  0  0  0
  8 40  1  0  0  0  0
  8 41  1  0  0  0  0
  9 10  2  0  0  0  0
  9 11  1  0  0  0  0
 11 29  1  0  0  0  0
 12 11  1  0  0  0  0
 12 26  1  0  0  0  0
 12 42  1  0  0  0  0
 12 13  1  0  0  0  0
 13 14  2  0  0  0  0
 13 15  1  0  0  0  0
 15 43  1  0  0  0  0
 16 15  1  0  0  0  0
 16 44  1  0  0  0  0
 16 17  1  0  0  0  0
 16 18  1  0  0  0  0
 17 45  1  0  0  0  0
 17 46  1  0  0  0  0
 17 47  1  0  0  0  0
 18 19  1  0  0  0  0
 18 25  2  0  0  0  0
 19 48  1  0  0  0  0
 19 20  2  0  0  0  0
 20 49  1  0  0  0  0
 20 21  1  0  0  0  0
 21 22  1  0  0  0  0
 21 24  2  0  0  0  0
 22 23  3  0  0  0  0
 24 50  1  0  0  0  0
 24 25  1  0  0  0  0
 25 51  1  0  0  0  0
 27 26  1  0  0  0  0
 26 52  1  0  0  0  0
 26 53  1  0  0  0  0
 27 29  1  0  0  0  0
 27 54  1  0  0  0  0
 27 28  1  0  0  0  0
 28 55  1  0  0  0  0
 29 56  1  0  0  0  0
 29 57  1  0  0  0  0
 30 58  1  0  0  0  0
 30 59  1  0  0  0  0
 30 60  1  0  0  0  0
M  ZZC   1 o1
M  ZZC   2 c1
M  ZZC   3 n1
M  ZZC   4 c2
M  ZZC   5 c3
M  ZZC   6 c4
M  ZZC   7 c5
M  ZZC   8 c6
M  ZZC   9 c7
M  ZZC  10 o2
M  ZZC  11 n2
M  ZZC  12 c8
M  ZZC  13 c9
M  ZZC  14 o3
M  ZZC  15 n3
M  ZZC  16 c10
M  ZZC  17 c11
M  ZZC  18 c12
M  ZZC  19 c13
M  ZZC  20 c14
M  ZZC  21 c15
M  ZZC  22 c16
M  ZZC  23 n4
M  ZZC  24 c17
M  ZZC  25 c18
M  ZZC  26 c19
M  ZZC  27 c20
M  ZZC  28 o4
M  ZZC  29 c21
M  ZZC  30 c22
M  ZZC  31 h11
M  ZZC  32 h21
M  ZZC  33 h41
M  ZZC  34 h42
M  ZZC  35 h43
M  ZZC  36 h51
M  ZZC  37 h52
M  ZZC  38 h53
M  ZZC  39 h61
M  ZZC  40 h62
M  ZZC  41 h63
M  ZZC  42 h81
M  ZZC  43 h31
M  ZZC  44 h101
M  ZZC  45 h111
M  ZZC  46 h112
M  ZZC  47 h113
M  ZZC  48 h131
M  ZZC  49 h141
M  ZZC  50 h171
M  ZZC  51 h181
M  ZZC  52 h191
M  ZZC  53 h192
M  ZZC  54 h201
M  ZZC  55 h01
M  ZZC  56 h211
M  ZZC  57 h212
M  ZZC  58 h221
M  ZZC  59 h222
M  ZZC  60 h223
M  ZZM   1 7
M  ZZI   1 81
M  ZZM   2 3
M  ZZI   2 121
M  ZZM   3 10
M  ZZI   3 211
M  ZZM   4 1
M  ZZI   4 113
M  ZZM   5 1
M  ZZI   5 110
M  ZZM   6 1
M  ZZI   6 111
M  ZZM   7 1
M  ZZI   7 111
M  ZZM   8 1
M  ZZI   8 111
M  ZZM   9 3
M  ZZI   9 121
M  ZZM  10 7
M  ZZI  10 81
M  ZZM  11 10
M  ZZI  11 192
M  ZZM  12 1
M  ZZI  12 113
M  ZZM  13 3
M  ZZI  13 121
M  ZZM  14 7
M  ZZI  14 81
M  ZZM  15 10
M  ZZI  15 211
M  ZZM  16 1
M  ZZI  16 113
M  ZZM  17 1
M  ZZI  17 111
M  ZZM  18 37
M  ZZI  18 124
M  ZZM  19 37
M  ZZI  19 125
M  ZZM  20 37
M  ZZI  20 125
M  ZZM  21 37
M  ZZI  21 124
M  ZZM  22 4
M  ZZI  22 130
M  ZZM  23 42
M  ZZI  23 225
M  ZZM  24 37
M  ZZI  24 125
M  ZZM  25 37
M  ZZI  25 125
M  ZZM  26 1
M  ZZI  26 112
M  ZZM  27 1
M  ZZI  27 113
M  ZZM  28 6
M  ZZI  28 60
M  ZZM  29 1
M  ZZI  29 112
M  ZZM  30 1
M  ZZI  30 111
M  ZZM  31 28
M  ZZI  31 11
M  ZZM  32 5
M  ZZI  32 1
M  ZZM  33 5
M  ZZI  33 1
M  ZZM  34 5
M  ZZI  34 1
M  ZZM  35 5
M  ZZI  35 1
M  ZZM  36 5
M  ZZI  36 1
M  ZZM  37 5
M  ZZI  37 1
M  ZZM  38 5
M  ZZI  38 1
M  ZZM  39 5
M  ZZI  39 1
M  ZZM  40 5
M  ZZI  40 1
M  ZZM  41 5
M  ZZI  41 1
M  ZZM  42 5
M  ZZI  42 1
M  ZZM  43 28
M  ZZI  43 11
M  ZZM  44 5
M  ZZI  44 1
M  ZZM  45 5
M  ZZI  45 1
M  ZZM  46 5
M  ZZI  46 1
M  ZZM  47 5
M  ZZI  47 1
M  ZZM  48 5
M  ZZI  48 1
M  ZZM  49 5
M  ZZI  49 1
M  ZZM  50 5
M  ZZI  50 1
M  ZZM  51 5
M  ZZI  51 1
M  ZZM  52 5
M  ZZI  52 1
M  ZZM  53 5
M  ZZI  53 1
M  ZZM  54 5
M  ZZI  54 1
M  ZZM  55 21
M  ZZI  55 20
M  ZZM  56 5
M  ZZI  56 1
M  ZZM  57 5
M  ZZI  57 1
M  ZZM  58 5
M  ZZI  58 1
M  ZZM  59 5
M  ZZI  59 1
M  ZZM  60 5
M  ZZI  60 1
M  END
> <IX>
1

> <NAME>
VHL_1ERR_29.pdb

> <Score>
-19.622835

> <Natom>
60

> <Nflex>
8

> <Hbond>
-6.182157

> <Hphob>
-6.646016

> <VwInt>
-24.607659

> <Dsolv>
16.13042

> <SolEl>
6.87102

> <Eintl>
6.07637

> <RecConf>
ND

> <projPath>
VHL_maps/

> <NAME_>
VHL_1ERR_29.pdb

$$$$
