VHL_4IM0_7.pdb
  MOLSOFT 04032206373D

 65 67  0  0  1  0  0  0  0  0999 V2000
   18.0556   -7.0349   -5.1127 C   0  0  0  0  0  0  0  0  0  0  0  0
   16.9129   -6.0599   -5.0668 C   0  0  0  0  0  0  0  0  0  0  0  0
   15.8380   -6.3317   -5.5734 O   0  0  0  0  0  0  0  0  0  0  0  0
   17.2016   -4.8999   -4.3770 N   0  0  0  0  0  0  0  0  0  0  0  0
   16.2644   -3.7803   -4.2072 C   0  0  1  0  0  0  0  0  0  0  0  0
   15.8541   -3.5621   -2.7190 C   0  0  0  0  0  0  0  0  0  0  0  0
   14.7205   -2.5350   -2.5834 C   0  0  0  0  0  0  0  0  0  0  0  0
   17.0258   -3.0768   -1.8531 C   0  0  0  0  0  0  0  0  0  0  0  0
   15.3286   -4.8863   -2.1501 C   0  0  0  0  0  0  0  0  0  0  0  0
   16.9639   -2.5788   -4.8662 C   0  0  0  0  0  0  0  0  0  0  0  0
   18.1674   -2.3998   -4.7372 O   0  0  0  0  0  0  0  0  0  0  0  0
   16.1926   -1.6743   -5.5926 N   0  0  0  0  0  0  0  0  0  0  0  0
   16.8294   -0.5846   -6.3198 C   0  0  2  0  0  0  0  0  0  0  0  0
   17.3677    0.5054   -5.3955 C   0  0  0  0  0  0  0  0  0  0  0  0
   16.9232    0.7064   -4.2730 O   0  0  0  0  0  0  0  0  0  0  0  0
   18.3279    1.2950   -6.0046 N   0  0  0  0  0  0  0  0  0  0  0  0
   18.6926    2.5971   -5.4824 C   0  0  0  0  0  0  0  0  0  0  0  0
   17.6906    3.6062   -5.9761 C   0  0  0  0  0  0  0  0  0  0  0  0
   16.4440    3.6889   -5.3649 C   0  0  0  0  0  0  0  0  0  0  0  0
   15.4144    4.3816   -5.9620 C   0  0  0  0  0  0  0  0  0  0  0  0
   15.6214    5.0413   -7.1630 C   0  0  0  0  0  0  0  0  0  0  0  0
   14.4796    5.5961   -7.8565 C   0  0  0  0  0  0  0  0  0  0  0  0
   13.4481    4.9362   -8.5091 C   0  0  0  0  0  0  0  0  0  0  0  0
   13.3259    3.4754   -8.7350 C   0  0  0  0  0  0  0  0  0  0  0  0
   12.4356    5.7539   -8.9564 N   0  0  0  0  0  0  0  0  0  0  0  0
   12.7462    7.0053   -8.6978 C   0  0  0  0  0  0  0  0  0  0  0  0
   14.2268    7.2893   -7.9046 S   0  0  0  0  0  0  0  0  0  0  0  0
   16.8985    5.0818   -7.7092 C   0  0  0  0  0  0  0  0  0  0  0  0
   17.9238    4.3528   -7.1281 C   0  0  0  0  0  0  0  0  0  0  0  0
   15.7386   -0.0318   -7.2369 C   0  0  0  0  0  0  0  0  0  0  0  0
   14.4600   -0.3939   -6.5039 C   0  0  1  0  0  0  0  0  0  0  0  0
   13.3450   -0.4437   -7.3897 O   0  0  0  0  0  0  0  0  0  0  0  0
   14.7973   -1.7651   -5.9535 C   0  0  0  0  0  0  0  0  0  0  0  0
   19.0135   -6.5132   -5.2015 H   0  0  0  0  0  0  0  0  0  0  0  0
   17.9379   -7.6912   -5.9798 H   0  0  0  0  0  0  0  0  0  0  0  0
   18.0434   -7.6374   -4.2016 H   0  0  0  0  0  0  0  0  0  0  0  0
   18.1536   -4.7680   -4.0526 H   0  0  0  0  0  0  0  0  0  0  0  0
   15.3655   -4.0214   -4.7683 H   0  0  0  0  0  0  0  0  0  0  0  0
   14.4116   -2.3994   -1.5430 H   0  0  0  0  0  0  0  0  0  0  0  0
   13.8298   -2.8485   -3.1379 H   0  0  0  0  0  0  0  0  0  0  0  0
   15.0141   -1.5609   -2.9860 H   0  0  0  0  0  0  0  0  0  0  0  0
   16.7406   -3.0065   -0.7984 H   0  0  0  0  0  0  0  0  0  0  0  0
   17.3752   -2.0851   -2.1569 H   0  0  0  0  0  0  0  0  0  0  0  0
   17.8754   -3.7552   -1.9083 H   0  0  0  0  0  0  0  0  0  0  0  0
   14.9954   -4.7674   -1.1160 H   0  0  0  0  0  0  0  0  0  0  0  0
   16.0945   -5.6643   -2.1581 H   0  0  0  0  0  0  0  0  0  0  0  0
   14.4778   -5.2616   -2.7274 H   0  0  0  0  0  0  0  0  0  0  0  0
   17.6570   -0.9839   -6.9031 H   0  0  0  0  0  0  0  0  0  0  0  0
   18.6931    1.0224   -6.9126 H   0  0  0  0  0  0  0  0  0  0  0  0
   18.7147    2.5702   -4.3872 H   0  0  0  0  0  0  0  0  0  0  0  0
   19.7018    2.8332   -5.8355 H   0  0  0  0  0  0  0  0  0  0  0  0
   16.2392    3.1412   -4.4498 H   0  0  0  0  0  0  0  0  0  0  0  0
   14.4284    4.3626   -5.5050 H   0  0  0  0  0  0  0  0  0  0  0  0
   12.4306    3.2487   -9.3206 H   0  0  0  0  0  0  0  0  0  0  0  0
   13.2427    2.9334   -7.7891 H   0  0  0  0  0  0  0  0  0  0  0  0
   14.1953    3.0847   -9.2704 H   0  0  0  0  0  0  0  0  0  0  0  0
   12.1049    7.8278   -8.9597 H   0  0  0  0  0  0  0  0  0  0  0  0
   17.0873    5.6333   -8.6260 H   0  0  0  0  0  0  0  0  0  0  0  0
   18.8947    4.3263   -7.6140 H   0  0  0  0  0  0  0  0  0  0  0  0
   15.8112    1.0437   -7.4295 H   0  0  0  0  0  0  0  0  0  0  0  0
   15.7672   -0.5290   -8.2141 H   0  0  0  0  0  0  0  0  0  0  0  0
   14.2591    0.3268   -5.7019 H   0  0  0  0  0  0  0  0  0  0  0  0
   12.5360   -0.3575   -6.8551 H   0  0  0  0  0  0  0  0  0  0  0  0
   14.7207   -2.5229   -6.7373 H   0  0  0  0  0  0  0  0  0  0  0  0
   14.1529   -2.0646   -5.1280 H   0  0  0  0  0  0  0  0  0  0  0  0
  1 34  1  0  0  0  0
  1 35  1  0  0  0  0
  1 36  1  0  0  0  0
  1  2  1  0  0  0  0
  2  3  2  0  0  0  0
  2  4  1  0  0  0  0
  4 37  1  0  0  0  0
  5  4  1  0  0  0  0
  5 38  1  0  0  0  0
  5  6  1  0  0  0  0
  5 10  1  0  0  0  0
  6  7  1  0  0  0  0
  6  8  1  0  0  0  0
  6  9  1  0  0  0  0
  7 39  1  0  0  0  0
  7 40  1  0  0  0  0
  7 41  1  0  0  0  0
  8 42  1  0  0  0  0
  8 43  1  0  0  0  0
  8 44  1  0  0  0  0
  9 45  1  0  0  0  0
  9 46  1  0  0  0  0
  9 47  1  0  0  0  0
 10 11  2  0  0  0  0
 10 12  1  0  0  0  0
 12 33  1  0  0  0  0
 13 12  1  0  0  0  0
 13 30  1  0  0  0  0
 13 48  1  0  0  0  0
 13 14  1  0  0  0  0
 14 15  2  0  0  0  0
 14 16  1  0  0  0  0
 16 49  1  0  0  0  0
 16 17  1  0  0  0  0
 17 50  1  0  0  0  0
 17 51  1  0  0  0  0
 17 18  1  0  0  0  0
 18 19  1  0  0  0  0
 18 29  2  0  0  0  0
 19 52  1  0  0  0  0
 19 20  2  0  0  0  0
 20 53  1  0  0  0  0
 20 21  1  0  0  0  0
 21 28  2  0  0  0  0
 21 22  1  0  0  0  0
 22 23  2  0  0  0  0
 22 27  1  0  0  0  0
 23 24  1  0  0  0  0
 23 25  1  0  0  0  0
 24 54  1  0  0  0  0
 24 55  1  0  0  0  0
 24 56  1  0  0  0  0
 25 26  2  0  0  0  0
 26 57  1  0  0  0  0
 26 27  1  0  0  0  0
 28 58  1  0  0  0  0
 28 29  1  0  0  0  0
 29 59  1  0  0  0  0
 31 30  1  0  0  0  0
 30 60  1  0  0  0  0
 30 61  1  0  0  0  0
 31 33  1  0  0  0  0
 31 62  1  0  0  0  0
 31 32  1  0  0  0  0
 32 63  1  0  0  0  0
 33 64  1  0  0  0  0
 33 65  1  0  0  0  0
M  ZZC   1 c1
M  ZZC   2 c2
M  ZZC   3 o1
M  ZZC   4 n1
M  ZZC   5 c3
M  ZZC   6 c4
M  ZZC   7 c5
M  ZZC   8 c6
M  ZZC   9 c7
M  ZZC  10 c8
M  ZZC  11 o2
M  ZZC  12 n2
M  ZZC  13 c9
M  ZZC  14 c10
M  ZZC  15 o3
M  ZZC  16 n3
M  ZZC  17 c11
M  ZZC  18 c12
M  ZZC  19 c13
M  ZZC  20 c14
M  ZZC  21 c15
M  ZZC  22 c16
M  ZZC  23 c17
M  ZZC  24 c18
M  ZZC  25 n4
M  ZZC  26 c19
M  ZZC  27 s1
M  ZZC  28 c20
M  ZZC  29 c21
M  ZZC  30 c22
M  ZZC  31 c23
M  ZZC  32 o4
M  ZZC  33 c24
M  ZZC  34 h11
M  ZZC  35 h12
M  ZZC  36 h13
M  ZZC  37 h01
M  ZZC  38 h31
M  ZZC  39 h51
M  ZZC  40 h52
M  ZZC  41 h53
M  ZZC  42 h61
M  ZZC  43 h62
M  ZZC  44 h63
M  ZZC  45 h71
M  ZZC  46 h72
M  ZZC  47 h73
M  ZZC  48 h91
M  ZZC  49 h02
M  ZZC  50 h111
M  ZZC  51 h112
M  ZZC  52 h131
M  ZZC  53 h141
M  ZZC  54 h181
M  ZZC  55 h182
M  ZZC  56 h183
M  ZZC  57 h191
M  ZZC  58 h201
M  ZZC  59 h211
M  ZZC  60 h221
M  ZZC  61 h222
M  ZZC  62 h231
M  ZZC  63 h41
M  ZZC  64 h241
M  ZZC  65 h242
M  ZZM   1 1
M  ZZI   1 111
M  ZZM   2 3
M  ZZI   2 121
M  ZZM   3 7
M  ZZI   3 81
M  ZZM   4 10
M  ZZI   4 211
M  ZZM   5 1
M  ZZI   5 113
M  ZZM   6 1
M  ZZI   6 110
M  ZZM   7 1
M  ZZI   7 111
M  ZZM   8 1
M  ZZI   8 111
M  ZZM   9 1
M  ZZI   9 111
M  ZZM  10 3
M  ZZI  10 121
M  ZZM  11 7
M  ZZI  11 81
M  ZZM  12 10
M  ZZI  12 192
M  ZZM  13 1
M  ZZI  13 113
M  ZZM  14 3
M  ZZI  14 121
M  ZZM  15 7
M  ZZI  15 81
M  ZZM  16 10
M  ZZI  16 211
M  ZZM  17 1
M  ZZI  17 112
M  ZZM  18 37
M  ZZI  18 124
M  ZZM  19 37
M  ZZI  19 125
M  ZZM  20 37
M  ZZI  20 125
M  ZZM  21 37
M  ZZI  21 124
M  ZZM  22 63
M  ZZI  22 104
M  ZZM  23 64
M  ZZI  23 105
M  ZZM  24 1
M  ZZI  24 111
M  ZZM  25 66
M  ZZI  25 222
M  ZZM  26 63
M  ZZI  26 104
M  ZZM  27 44
M  ZZI  27 248
M  ZZM  28 37
M  ZZI  28 125
M  ZZM  29 37
M  ZZI  29 125
M  ZZM  30 1
M  ZZI  30 112
M  ZZM  31 1
M  ZZI  31 113
M  ZZM  32 6
M  ZZI  32 60
M  ZZM  33 1
M  ZZI  33 112
M  ZZM  34 5
M  ZZI  34 1
M  ZZM  35 5
M  ZZI  35 1
M  ZZM  36 5
M  ZZI  36 1
M  ZZM  37 28
M  ZZI  37 11
M  ZZM  38 5
M  ZZI  38 1
M  ZZM  39 5
M  ZZI  39 1
M  ZZM  40 5
M  ZZI  40 1
M  ZZM  41 5
M  ZZI  41 1
M  ZZM  42 5
M  ZZI  42 1
M  ZZM  43 5
M  ZZI  43 1
M  ZZM  44 5
M  ZZI  44 1
M  ZZM  45 5
M  ZZI  45 1
M  ZZM  46 5
M  ZZI  46 1
M  ZZM  47 5
M  ZZI  47 1
M  ZZM  48 5
M  ZZI  48 1
M  ZZM  49 28
M  ZZI  49 11
M  ZZM  50 5
M  ZZI  50 1
M  ZZM  51 5
M  ZZI  51 1
M  ZZM  52 5
M  ZZI  52 1
M  ZZM  53 5
M  ZZI  53 1
M  ZZM  54 5
M  ZZI  54 1
M  ZZM  55 5
M  ZZI  55 1
M  ZZM  56 5
M  ZZI  56 1
M  ZZM  57 5
M  ZZI  57 1
M  ZZM  58 5
M  ZZI  58 1
M  ZZM  59 5
M  ZZI  59 1
M  ZZM  60 5
M  ZZI  60 1
M  ZZM  61 5
M  ZZI  61 1
M  ZZM  62 5
M  ZZI  62 1
M  ZZM  63 21
M  ZZI  63 20
M  ZZM  64 5
M  ZZI  64 1
M  ZZM  65 5
M  ZZI  65 1
M  END
> <IX>
1

> <NAME>
VHL_4IM0_7.pdb

> <Score>
-7.741403

> <Natom>
65

> <Nflex>
8

> <Hbond>
-6.230492

> <Hphob>
-6.927873

> <VwInt>
-28.257398

> <Dsolv>
21.471022

> <SolEl>
23.725269

> <Eintl>
7.264784

> <RecConf>
ND

> <projPath>
VHL_maps/

> <NAME_>
VHL_4IM0_7.pdb

$$$$
