VHL_2GQG_3.pdb
  MOLSOFT 04032206373D

 65 67  0  0  1  0  0  0  0  0999 V2000
   18.1192   -6.6583   -5.1242 C   0  0  0  0  0  0  0  0  0  0  0  0
   16.9032   -5.7862   -4.9705 C   0  0  0  0  0  0  0  0  0  0  0  0
   15.8187   -6.1464   -5.3944 O   0  0  0  0  0  0  0  0  0  0  0  0
   17.1445   -4.6081   -4.2913 N   0  0  0  0  0  0  0  0  0  0  0  0
   16.1338   -3.5721   -4.0216 C   0  0  1  0  0  0  0  0  0  0  0  0
   15.8889   -3.3858   -2.4948 C   0  0  0  0  0  0  0  0  0  0  0  0
   15.4236   -4.7290   -1.9196 C   0  0  0  0  0  0  0  0  0  0  0  0
   14.7813   -2.3696   -2.1929 C   0  0  0  0  0  0  0  0  0  0  0  0
   17.1509   -2.9242   -1.7520 C   0  0  0  0  0  0  0  0  0  0  0  0
   16.6277   -2.3288   -4.7915 C   0  0  0  0  0  0  0  0  0  0  0  0
   17.8224   -2.0595   -4.8441 O   0  0  0  0  0  0  0  0  0  0  0  0
   15.6756   -1.5556   -5.4636 N   0  0  0  0  0  0  0  0  0  0  0  0
   16.0691   -0.6426   -6.5264 C   0  0  2  0  0  0  0  0  0  0  0  0
   16.4522    0.7488   -6.0153 C   0  0  0  0  0  0  0  0  0  0  0  0
   15.9324    1.2664   -5.0360 O   0  0  0  0  0  0  0  0  0  0  0  0
   17.3819    1.3850   -6.8168 N   0  0  0  0  0  0  0  0  0  0  0  0
   17.8328    2.7403   -6.5471 C   0  0  0  0  0  0  0  0  0  0  0  0
   19.2427    3.0201   -7.0103 C   0  0  0  0  0  0  0  0  0  0  0  0
   19.6580    4.3251   -7.2668 C   0  0  0  0  0  0  0  0  0  0  0  0
   20.9673    4.6031   -7.6349 C   0  0  0  0  0  0  0  0  0  0  0  0
   21.8983    3.5789   -7.7544 C   0  0  0  0  0  0  0  0  0  0  0  0
   23.2831    3.8387   -8.1137 C   0  0  0  0  0  0  0  0  0  0  0  0
   24.3516    4.2562   -7.3332 C   0  0  0  0  0  0  0  0  0  0  0  0
   24.3214    4.5867   -5.8905 C   0  0  0  0  0  0  0  0  0  0  0  0
   25.5614    4.3349   -7.9937 N   0  0  0  0  0  0  0  0  0  0  0  0
   25.3987    4.0047   -9.2552 C   0  0  0  0  0  0  0  0  0  0  0  0
   23.8125    3.5902   -9.7291 S   0  0  0  0  0  0  0  0  0  0  0  0
   21.4851    2.2816   -7.4975 C   0  0  0  0  0  0  0  0  0  0  0  0
   20.1849    2.0064   -7.1281 C   0  0  0  0  0  0  0  0  0  0  0  0
   14.8330   -0.5694   -7.4085 C   0  0  0  0  0  0  0  0  0  0  0  0
   13.6794   -0.6917   -6.4241 C   0  0  1  0  0  0  0  0  0  0  0  0
   12.5390   -1.3094   -7.0149 O   0  0  0  0  0  0  0  0  0  0  0  0
   14.2296   -1.5801   -5.3213 C   0  0  0  0  0  0  0  0  0  0  0  0
   19.0252   -6.0556   -5.2392 H   0  0  0  0  0  0  0  0  0  0  0  0
   18.0072   -7.2847   -6.0143 H   0  0  0  0  0  0  0  0  0  0  0  0
   18.2106   -7.2996   -4.2444 H   0  0  0  0  0  0  0  0  0  0  0  0
   18.1048   -4.4001   -4.0419 H   0  0  0  0  0  0  0  0  0  0  0  0
   15.2033   -3.9172   -4.4723 H   0  0  0  0  0  0  0  0  0  0  0  0
   15.1622   -4.6335   -0.8630 H   0  0  0  0  0  0  0  0  0  0  0  0
   16.1966   -5.4949   -2.0049 H   0  0  0  0  0  0  0  0  0  0  0  0
   14.5386   -5.1057   -2.4424 H   0  0  0  0  0  0  0  0  0  0  0  0
   15.0647   -1.3597   -2.5019 H   0  0  0  0  0  0  0  0  0  0  0  0
   14.5698   -2.3164   -1.1197 H   0  0  0  0  0  0  0  0  0  0  0  0
   13.8433   -2.6430   -2.6854 H   0  0  0  0  0  0  0  0  0  0  0  0
   16.9717   -2.8405   -0.6752 H   0  0  0  0  0  0  0  0  0  0  0  0
   17.4930   -1.9449   -2.1006 H   0  0  0  0  0  0  0  0  0  0  0  0
   17.9743   -3.6241   -1.8810 H   0  0  0  0  0  0  0  0  0  0  0  0
   16.9169   -1.0650   -7.0758 H   0  0  0  0  0  0  0  0  0  0  0  0
   17.7732    0.8871   -7.6116 H   0  0  0  0  0  0  0  0  0  0  0  0
   17.1318    3.4042   -7.0647 H   0  0  0  0  0  0  0  0  0  0  0  0
   17.7576    2.9404   -5.4729 H   0  0  0  0  0  0  0  0  0  0  0  0
   18.9549    5.1479   -7.1735 H   0  0  0  0  0  0  0  0  0  0  0  0
   21.2581    5.6317   -7.8268 H   0  0  0  0  0  0  0  0  0  0  0  0
   25.2859    4.9799   -5.5565 H   0  0  0  0  0  0  0  0  0  0  0  0
   24.1026    3.6963   -5.2964 H   0  0  0  0  0  0  0  0  0  0  0  0
   23.5599    5.3421   -5.6769 H   0  0  0  0  0  0  0  0  0  0  0  0
   26.2169    3.9957   -9.9609 H   0  0  0  0  0  0  0  0  0  0  0  0
   22.1830    1.4584   -7.5859 H   0  0  0  0  0  0  0  0  0  0  0  0
   19.9153    0.9756   -6.9307 H   0  0  0  0  0  0  0  0  0  0  0  0
   14.7684    0.3468   -8.0050 H   0  0  0  0  0  0  0  0  0  0  0  0
   14.8222   -1.4136   -8.1066 H   0  0  0  0  0  0  0  0  0  0  0  0
   13.3845    0.2863   -6.0267 H   0  0  0  0  0  0  0  0  0  0  0  0
   12.1948   -0.7170   -7.7076 H   0  0  0  0  0  0  0  0  0  0  0  0
   13.8452   -2.6008   -5.3547 H   0  0  0  0  0  0  0  0  0  0  0  0
   13.9601   -1.1518   -4.3558 H   0  0  0  0  0  0  0  0  0  0  0  0
  1 34  1  0  0  0  0
  1 35  1  0  0  0  0
  1 36  1  0  0  0  0
  1  2  1  0  0  0  0
  2  3  2  0  0  0  0
  2  4  1  0  0  0  0
  4 37  1  0  0  0  0
  5  4  1  0  0  0  0
  5 38  1  0  0  0  0
  5  6  1  0  0  0  0
  5 10  1  0  0  0  0
  6  7  1  0  0  0  0
  6  8  1  0  0  0  0
  6  9  1  0  0  0  0
  7 39  1  0  0  0  0
  7 40  1  0  0  0  0
  7 41  1  0  0  0  0
  8 42  1  0  0  0  0
  8 43  1  0  0  0  0
  8 44  1  0  0  0  0
  9 45  1  0  0  0  0
  9 46  1  0  0  0  0
  9 47  1  0  0  0  0
 10 11  2  0  0  0  0
 10 12  1  0  0  0  0
 12 33  1  0  0  0  0
 13 12  1  0  0  0  0
 13 30  1  0  0  0  0
 13 48  1  0  0  0  0
 13 14  1  0  0  0  0
 14 15  2  0  0  0  0
 14 16  1  0  0  0  0
 16 49  1  0  0  0  0
 16 17  1  0  0  0  0
 17 50  1  0  0  0  0
 17 51  1  0  0  0  0
 17 18  1  0  0  0  0
 18 19  1  0  0  0  0
 18 29  2  0  0  0  0
 19 52  1  0  0  0  0
 19 20  2  0  0  0  0
 20 53  1  0  0  0  0
 20 21  1  0  0  0  0
 21 28  2  0  0  0  0
 21 22  1  0  0  0  0
 22 23  2  0  0  0  0
 22 27  1  0  0  0  0
 23 24  1  0  0  0  0
 23 25  1  0  0  0  0
 24 54  1  0  0  0  0
 24 55  1  0  0  0  0
 24 56  1  0  0  0  0
 25 26  2  0  0  0  0
 26 57  1  0  0  0  0
 26 27  1  0  0  0  0
 28 58  1  0  0  0  0
 28 29  1  0  0  0  0
 29 59  1  0  0  0  0
 31 30  1  0  0  0  0
 30 60  1  0  0  0  0
 30 61  1  0  0  0  0
 31 33  1  0  0  0  0
 31 62  1  0  0  0  0
 31 32  1  0  0  0  0
 32 63  1  0  0  0  0
 33 64  1  0  0  0  0
 33 65  1  0  0  0  0
M  ZZC   1 c1
M  ZZC   2 c2
M  ZZC   3 o1
M  ZZC   4 n1
M  ZZC   5 c3
M  ZZC   6 c4
M  ZZC   7 c5
M  ZZC   8 c6
M  ZZC   9 c7
M  ZZC  10 c8
M  ZZC  11 o2
M  ZZC  12 n2
M  ZZC  13 c9
M  ZZC  14 c10
M  ZZC  15 o3
M  ZZC  16 n3
M  ZZC  17 c11
M  ZZC  18 c12
M  ZZC  19 c13
M  ZZC  20 c14
M  ZZC  21 c15
M  ZZC  22 c16
M  ZZC  23 c17
M  ZZC  24 c18
M  ZZC  25 n4
M  ZZC  26 c19
M  ZZC  27 s1
M  ZZC  28 c20
M  ZZC  29 c21
M  ZZC  30 c22
M  ZZC  31 c23
M  ZZC  32 o4
M  ZZC  33 c24
M  ZZC  34 h11
M  ZZC  35 h12
M  ZZC  36 h13
M  ZZC  37 h01
M  ZZC  38 h31
M  ZZC  39 h51
M  ZZC  40 h52
M  ZZC  41 h53
M  ZZC  42 h61
M  ZZC  43 h62
M  ZZC  44 h63
M  ZZC  45 h71
M  ZZC  46 h72
M  ZZC  47 h73
M  ZZC  48 h91
M  ZZC  49 h02
M  ZZC  50 h111
M  ZZC  51 h112
M  ZZC  52 h131
M  ZZC  53 h141
M  ZZC  54 h181
M  ZZC  55 h182
M  ZZC  56 h183
M  ZZC  57 h191
M  ZZC  58 h201
M  ZZC  59 h211
M  ZZC  60 h221
M  ZZC  61 h222
M  ZZC  62 h231
M  ZZC  63 h41
M  ZZC  64 h241
M  ZZC  65 h242
M  ZZM   1 1
M  ZZI   1 111
M  ZZM   2 3
M  ZZI   2 121
M  ZZM   3 7
M  ZZI   3 81
M  ZZM   4 10
M  ZZI   4 211
M  ZZM   5 1
M  ZZI   5 113
M  ZZM   6 1
M  ZZI   6 110
M  ZZM   7 1
M  ZZI   7 111
M  ZZM   8 1
M  ZZI   8 111
M  ZZM   9 1
M  ZZI   9 111
M  ZZM  10 3
M  ZZI  10 121
M  ZZM  11 7
M  ZZI  11 81
M  ZZM  12 10
M  ZZI  12 192
M  ZZM  13 1
M  ZZI  13 113
M  ZZM  14 3
M  ZZI  14 121
M  ZZM  15 7
M  ZZI  15 81
M  ZZM  16 10
M  ZZI  16 211
M  ZZM  17 1
M  ZZI  17 112
M  ZZM  18 37
M  ZZI  18 124
M  ZZM  19 37
M  ZZI  19 125
M  ZZM  20 37
M  ZZI  20 125
M  ZZM  21 37
M  ZZI  21 124
M  ZZM  22 63
M  ZZI  22 104
M  ZZM  23 64
M  ZZI  23 105
M  ZZM  24 1
M  ZZI  24 111
M  ZZM  25 66
M  ZZI  25 222
M  ZZM  26 63
M  ZZI  26 104
M  ZZM  27 44
M  ZZI  27 248
M  ZZM  28 37
M  ZZI  28 125
M  ZZM  29 37
M  ZZI  29 125
M  ZZM  30 1
M  ZZI  30 112
M  ZZM  31 1
M  ZZI  31 113
M  ZZM  32 6
M  ZZI  32 60
M  ZZM  33 1
M  ZZI  33 112
M  ZZM  34 5
M  ZZI  34 1
M  ZZM  35 5
M  ZZI  35 1
M  ZZM  36 5
M  ZZI  36 1
M  ZZM  37 28
M  ZZI  37 11
M  ZZM  38 5
M  ZZI  38 1
M  ZZM  39 5
M  ZZI  39 1
M  ZZM  40 5
M  ZZI  40 1
M  ZZM  41 5
M  ZZI  41 1
M  ZZM  42 5
M  ZZI  42 1
M  ZZM  43 5
M  ZZI  43 1
M  ZZM  44 5
M  ZZI  44 1
M  ZZM  45 5
M  ZZI  45 1
M  ZZM  46 5
M  ZZI  46 1
M  ZZM  47 5
M  ZZI  47 1
M  ZZM  48 5
M  ZZI  48 1
M  ZZM  49 28
M  ZZI  49 11
M  ZZM  50 5
M  ZZI  50 1
M  ZZM  51 5
M  ZZI  51 1
M  ZZM  52 5
M  ZZI  52 1
M  ZZM  53 5
M  ZZI  53 1
M  ZZM  54 5
M  ZZI  54 1
M  ZZM  55 5
M  ZZI  55 1
M  ZZM  56 5
M  ZZI  56 1
M  ZZM  57 5
M  ZZI  57 1
M  ZZM  58 5
M  ZZI  58 1
M  ZZM  59 5
M  ZZI  59 1
M  ZZM  60 5
M  ZZI  60 1
M  ZZM  61 5
M  ZZI  61 1
M  ZZM  62 5
M  ZZI  62 1
M  ZZM  63 21
M  ZZI  63 20
M  ZZM  64 5
M  ZZI  64 1
M  ZZM  65 5
M  ZZI  65 1
M  END
> <IX>
1

> <NAME>
VHL_2GQG_3.pdb

> <Score>
-11.657708

> <Natom>
65

> <Nflex>
8

> <Hbond>
-4.957182

> <Hphob>
-6.47412

> <VwInt>
-28.194853

> <Dsolv>
16.871596

> <SolEl>
16.979189

> <Eintl>
7.927524

> <RecConf>
ND

> <projPath>
VHL_maps/

> <NAME_>
VHL_2GQG_3.pdb

$$$$
