VHL_6W8L_8.pdb
  MOLSOFT 04032206423D

 65 67  0  0  1  0  0  0  0  0999 V2000
   17.3963   -6.7807   -4.6131 C   0  0  0  0  0  0  0  0  0  0  0  0
   17.3502   -5.2890   -4.4359 C   0  0  0  0  0  0  0  0  0  0  0  0
   17.8349   -4.5405   -5.2700 O   0  0  0  0  0  0  0  0  0  0  0  0
   16.6825   -4.8667   -3.2972 N   0  0  0  0  0  0  0  0  0  0  0  0
   16.6017   -3.4366   -2.9619 C   0  0  2  0  0  0  0  0  0  0  0  0
   16.1774   -3.1163   -1.4964 C   0  0  0  0  0  0  0  0  0  0  0  0
   17.2381   -3.6372   -0.5189 C   0  0  0  0  0  0  0  0  0  0  0  0
   16.0614   -1.6013   -1.2615 C   0  0  0  0  0  0  0  0  0  0  0  0
   14.8277   -3.7393   -1.1372 C   0  0  0  0  0  0  0  0  0  0  0  0
   15.6605   -2.8073   -4.0039 C   0  0  0  0  0  0  0  0  0  0  0  0
   14.5379   -3.2467   -4.2144 O   0  0  0  0  0  0  0  0  0  0  0  0
   16.1805   -1.7394   -4.7280 N   0  0  0  0  0  0  0  0  0  0  0  0
   15.5607   -1.2613   -5.9529 C   0  0  1  0  0  0  0  0  0  0  0  0
   14.3308   -0.4012   -5.6967 C   0  0  0  0  0  0  0  0  0  0  0  0
   14.0054    0.0112   -4.5912 O   0  0  0  0  0  0  0  0  0  0  0  0
   13.6797   -0.0752   -6.8691 N   0  0  0  0  0  0  0  0  0  0  0  0
   12.6998    0.9785   -6.9177 C   0  0  0  0  0  0  0  0  0  0  0  0
   13.3675    2.2931   -7.2459 C   0  0  0  0  0  0  0  0  0  0  0  0
   13.2692    2.8667   -8.5112 C   0  0  0  0  0  0  0  0  0  0  0  0
   13.8728    4.0773   -8.7922 C   0  0  0  0  0  0  0  0  0  0  0  0
   14.6074    4.7430   -7.8209 C   0  0  0  0  0  0  0  0  0  0  0  0
   15.1901    6.0418   -8.1037 C   0  0  0  0  0  0  0  0  0  0  0  0
   14.5698    7.2605   -8.3293 C   0  0  0  0  0  0  0  0  0  0  0  0
   13.1161    7.5221   -8.3024 C   0  0  0  0  0  0  0  0  0  0  0  0
   15.4222    8.3132   -8.5895 N   0  0  0  0  0  0  0  0  0  0  0  0
   16.6659    7.8887   -8.5494 C   0  0  0  0  0  0  0  0  0  0  0  0
   16.8946    6.2325   -8.1889 S   0  0  0  0  0  0  0  0  0  0  0  0
   14.7329    4.1667   -6.5641 C   0  0  0  0  0  0  0  0  0  0  0  0
   14.1170    2.9617   -6.2808 C   0  0  0  0  0  0  0  0  0  0  0  0
   16.6476   -0.4238   -6.6280 C   0  0  0  0  0  0  0  0  0  0  0  0
   17.4986    0.0640   -5.4652 C   0  0  2  0  0  0  0  0  0  0  0  0
   18.8486    0.3515   -5.8293 O   0  0  0  0  0  0  0  0  0  0  0  0
   17.4660   -1.1149   -4.5206 C   0  0  0  0  0  0  0  0  0  0  0  0
   17.4003   -7.2876   -3.6464 H   0  0  0  0  0  0  0  0  0  0  0  0
   18.3107   -7.0565   -5.1464 H   0  0  0  0  0  0  0  0  0  0  0  0
   16.5291   -7.1032   -5.1961 H   0  0  0  0  0  0  0  0  0  0  0  0
   16.2293   -5.5568   -2.7087 H   0  0  0  0  0  0  0  0  0  0  0  0
   17.6167   -3.0598   -3.1057 H   0  0  0  0  0  0  0  0  0  0  0  0
   17.3351   -4.7197   -0.5724 H   0  0  0  0  0  0  0  0  0  0  0  0
   16.9889   -3.3891    0.5179 H   0  0  0  0  0  0  0  0  0  0  0  0
   18.2215   -3.2044   -0.7270 H   0  0  0  0  0  0  0  0  0  0  0  0
   17.0218   -1.0984   -1.4047 H   0  0  0  0  0  0  0  0  0  0  0  0
   15.7418   -1.3817   -0.2373 H   0  0  0  0  0  0  0  0  0  0  0  0
   15.3294   -1.1331   -1.9267 H   0  0  0  0  0  0  0  0  0  0  0  0
   14.0189   -3.2922   -1.7188 H   0  0  0  0  0  0  0  0  0  0  0  0
   14.5951   -3.5678   -0.0821 H   0  0  0  0  0  0  0  0  0  0  0  0
   14.8127   -4.8186   -1.3068 H   0  0  0  0  0  0  0  0  0  0  0  0
   15.2645   -2.1166   -6.5724 H   0  0  0  0  0  0  0  0  0  0  0  0
   13.9776   -0.4826   -7.7481 H   0  0  0  0  0  0  0  0  0  0  0  0
   11.9613    0.6944   -7.6701 H   0  0  0  0  0  0  0  0  0  0  0  0
   12.1753    1.0376   -5.9598 H   0  0  0  0  0  0  0  0  0  0  0  0
   12.6972    2.3905   -9.2967 H   0  0  0  0  0  0  0  0  0  0  0  0
   13.7549    4.5075   -9.7821 H   0  0  0  0  0  0  0  0  0  0  0  0
   12.6302    7.0680   -9.1696 H   0  0  0  0  0  0  0  0  0  0  0  0
   12.9148    8.5953   -8.3192 H   0  0  0  0  0  0  0  0  0  0  0  0
   12.6613    7.1143   -7.3952 H   0  0  0  0  0  0  0  0  0  0  0  0
   17.5046    8.5446   -8.7334 H   0  0  0  0  0  0  0  0  0  0  0  0
   15.2906    4.6698   -5.7797 H   0  0  0  0  0  0  0  0  0  0  0  0
   14.2154    2.5509   -5.2806 H   0  0  0  0  0  0  0  0  0  0  0  0
   17.2375   -1.0473   -7.3009 H   0  0  0  0  0  0  0  0  0  0  0  0
   16.2781    0.4102   -7.2337 H   0  0  0  0  0  0  0  0  0  0  0  0
   17.0543    0.9529   -5.0038 H   0  0  0  0  0  0  0  0  0  0  0  0
   18.8523    0.6818   -6.7453 H   0  0  0  0  0  0  0  0  0  0  0  0
   17.6096   -0.8100   -3.4825 H   0  0  0  0  0  0  0  0  0  0  0  0
   18.2357   -1.8496   -4.7712 H   0  0  0  0  0  0  0  0  0  0  0  0
  1 34  1  0  0  0  0
  1 35  1  0  0  0  0
  1 36  1  0  0  0  0
  1  2  1  0  0  0  0
  2  3  2  0  0  0  0
  2  4  1  0  0  0  0
  4 37  1  0  0  0  0
  5  4  1  0  0  0  0
  5 38  1  0  0  0  0
  5  6  1  0  0  0  0
  5 10  1  0  0  0  0
  6  7  1  0  0  0  0
  6  8  1  0  0  0  0
  6  9  1  0  0  0  0
  7 39  1  0  0  0  0
  7 40  1  0  0  0  0
  7 41  1  0  0  0  0
  8 42  1  0  0  0  0
  8 43  1  0  0  0  0
  8 44  1  0  0  0  0
  9 45  1  0  0  0  0
  9 46  1  0  0  0  0
  9 47  1  0  0  0  0
 10 11  2  0  0  0  0
 10 12  1  0  0  0  0
 12 33  1  0  0  0  0
 13 12  1  0  0  0  0
 13 30  1  0  0  0  0
 13 48  1  0  0  0  0
 13 14  1  0  0  0  0
 14 15  2  0  0  0  0
 14 16  1  0  0  0  0
 16 49  1  0  0  0  0
 16 17  1  0  0  0  0
 17 50  1  0  0  0  0
 17 51  1  0  0  0  0
 17 18  1  0  0  0  0
 18 19  1  0  0  0  0
 18 29  2  0  0  0  0
 19 52  1  0  0  0  0
 19 20  2  0  0  0  0
 20 53  1  0  0  0  0
 20 21  1  0  0  0  0
 21 28  2  0  0  0  0
 21 22  1  0  0  0  0
 22 23  2  0  0  0  0
 22 27  1  0  0  0  0
 23 24  1  0  0  0  0
 23 25  1  0  0  0  0
 24 54  1  0  0  0  0
 24 55  1  0  0  0  0
 24 56  1  0  0  0  0
 25 26  2  0  0  0  0
 26 57  1  0  0  0  0
 26 27  1  0  0  0  0
 28 58  1  0  0  0  0
 28 29  1  0  0  0  0
 29 59  1  0  0  0  0
 31 30  1  0  0  0  0
 30 60  1  0  0  0  0
 30 61  1  0  0  0  0
 31 33  1  0  0  0  0
 31 62  1  0  0  0  0
 31 32  1  0  0  0  0
 32 63  1  0  0  0  0
 33 64  1  0  0  0  0
 33 65  1  0  0  0  0
M  ZZC   1 c1
M  ZZC   2 c2
M  ZZC   3 o1
M  ZZC   4 n1
M  ZZC   5 c3
M  ZZC   6 c4
M  ZZC   7 c5
M  ZZC   8 c6
M  ZZC   9 c7
M  ZZC  10 c8
M  ZZC  11 o2
M  ZZC  12 n2
M  ZZC  13 c9
M  ZZC  14 c10
M  ZZC  15 o3
M  ZZC  16 n3
M  ZZC  17 c11
M  ZZC  18 c12
M  ZZC  19 c13
M  ZZC  20 c14
M  ZZC  21 c15
M  ZZC  22 c16
M  ZZC  23 c17
M  ZZC  24 c18
M  ZZC  25 n4
M  ZZC  26 c19
M  ZZC  27 s1
M  ZZC  28 c20
M  ZZC  29 c21
M  ZZC  30 c22
M  ZZC  31 c23
M  ZZC  32 o4
M  ZZC  33 c24
M  ZZC  34 h11
M  ZZC  35 h12
M  ZZC  36 h13
M  ZZC  37 h01
M  ZZC  38 h31
M  ZZC  39 h51
M  ZZC  40 h52
M  ZZC  41 h53
M  ZZC  42 h61
M  ZZC  43 h62
M  ZZC  44 h63
M  ZZC  45 h71
M  ZZC  46 h72
M  ZZC  47 h73
M  ZZC  48 h91
M  ZZC  49 h02
M  ZZC  50 h111
M  ZZC  51 h112
M  ZZC  52 h131
M  ZZC  53 h141
M  ZZC  54 h181
M  ZZC  55 h182
M  ZZC  56 h183
M  ZZC  57 h191
M  ZZC  58 h201
M  ZZC  59 h211
M  ZZC  60 h221
M  ZZC  61 h222
M  ZZC  62 h231
M  ZZC  63 h41
M  ZZC  64 h241
M  ZZC  65 h242
M  ZZM   1 1
M  ZZI   1 111
M  ZZM   2 3
M  ZZI   2 121
M  ZZM   3 7
M  ZZI   3 81
M  ZZM   4 10
M  ZZI   4 211
M  ZZM   5 1
M  ZZI   5 113
M  ZZM   6 1
M  ZZI   6 110
M  ZZM   7 1
M  ZZI   7 111
M  ZZM   8 1
M  ZZI   8 111
M  ZZM   9 1
M  ZZI   9 111
M  ZZM  10 3
M  ZZI  10 121
M  ZZM  11 7
M  ZZI  11 81
M  ZZM  12 10
M  ZZI  12 192
M  ZZM  13 1
M  ZZI  13 113
M  ZZM  14 3
M  ZZI  14 121
M  ZZM  15 7
M  ZZI  15 81
M  ZZM  16 10
M  ZZI  16 211
M  ZZM  17 1
M  ZZI  17 112
M  ZZM  18 37
M  ZZI  18 124
M  ZZM  19 37
M  ZZI  19 125
M  ZZM  20 37
M  ZZI  20 125
M  ZZM  21 37
M  ZZI  21 124
M  ZZM  22 63
M  ZZI  22 104
M  ZZM  23 64
M  ZZI  23 105
M  ZZM  24 1
M  ZZI  24 111
M  ZZM  25 66
M  ZZI  25 222
M  ZZM  26 63
M  ZZI  26 104
M  ZZM  27 44
M  ZZI  27 248
M  ZZM  28 37
M  ZZI  28 125
M  ZZM  29 37
M  ZZI  29 125
M  ZZM  30 1
M  ZZI  30 112
M  ZZM  31 1
M  ZZI  31 113
M  ZZM  32 6
M  ZZI  32 60
M  ZZM  33 1
M  ZZI  33 112
M  ZZM  34 5
M  ZZI  34 1
M  ZZM  35 5
M  ZZI  35 1
M  ZZM  36 5
M  ZZI  36 1
M  ZZM  37 28
M  ZZI  37 11
M  ZZM  38 5
M  ZZI  38 1
M  ZZM  39 5
M  ZZI  39 1
M  ZZM  40 5
M  ZZI  40 1
M  ZZM  41 5
M  ZZI  41 1
M  ZZM  42 5
M  ZZI  42 1
M  ZZM  43 5
M  ZZI  43 1
M  ZZM  44 5
M  ZZI  44 1
M  ZZM  45 5
M  ZZI  45 1
M  ZZM  46 5
M  ZZI  46 1
M  ZZM  47 5
M  ZZI  47 1
M  ZZM  48 5
M  ZZI  48 1
M  ZZM  49 28
M  ZZI  49 11
M  ZZM  50 5
M  ZZI  50 1
M  ZZM  51 5
M  ZZI  51 1
M  ZZM  52 5
M  ZZI  52 1
M  ZZM  53 5
M  ZZI  53 1
M  ZZM  54 5
M  ZZI  54 1
M  ZZM  55 5
M  ZZI  55 1
M  ZZM  56 5
M  ZZI  56 1
M  ZZM  57 5
M  ZZI  57 1
M  ZZM  58 5
M  ZZI  58 1
M  ZZM  59 5
M  ZZI  59 1
M  ZZM  60 5
M  ZZI  60 1
M  ZZM  61 5
M  ZZI  61 1
M  ZZM  62 5
M  ZZI  62 1
M  ZZM  63 21
M  ZZI  63 20
M  ZZM  64 5
M  ZZI  64 1
M  ZZM  65 5
M  ZZI  65 1
M  END
> <IX>
1

> <NAME>
VHL_6W8L_8.pdb

> <Score>
2.287634

> <Natom>
65

> <Nflex>
8

> <Hbond>
-4.009664

> <Hphob>
-6.512166

> <VwInt>
-23.201916

> <Dsolv>
21.198279

> <SolEl>
23.252639

> <Eintl>
6.586166

> <RecConf>
ND

> <projPath>
VHL_maps/

> <NAME_>
VHL_6W8L_8.pdb

$$$$
