VHL_5GMP_14.pdb
  MOLSOFT 04032206413D

 65 67  0  0  1  0  0  0  0  0999 V2000
   18.3102   -6.7685   -5.2805 C   0  0  0  0  0  0  0  0  0  0  0  0
   17.1283   -5.8394   -5.2149 C   0  0  0  0  0  0  0  0  0  0  0  0
   16.0172   -6.2174   -5.5481 O   0  0  0  0  0  0  0  0  0  0  0  0
   17.4314   -4.5826   -4.7265 N   0  0  0  0  0  0  0  0  0  0  0  0
   16.4597   -3.4911   -4.5829 C   0  0  1  0  0  0  0  0  0  0  0  0
   15.8996   -3.3561   -3.1319 C   0  0  0  0  0  0  0  0  0  0  0  0
   15.3845   -4.7132   -2.6229 C   0  0  0  0  0  0  0  0  0  0  0  0
   16.9642   -2.8511   -2.1458 C   0  0  0  0  0  0  0  0  0  0  0  0
   14.7119   -2.3809   -3.1062 C   0  0  0  0  0  0  0  0  0  0  0  0
   17.1482   -2.2121   -5.1088 C   0  0  0  0  0  0  0  0  0  0  0  0
   18.3269   -1.9917   -4.8704 O   0  0  0  0  0  0  0  0  0  0  0  0
   16.3817   -1.2844   -5.8201 N   0  0  0  0  0  0  0  0  0  0  0  0
   16.9648   -0.0270   -6.2914 C   0  0  2  0  0  0  0  0  0  0  0  0
   17.4116    0.9905   -5.2411 C   0  0  0  0  0  0  0  0  0  0  0  0
   17.3190    0.8172   -4.0341 O   0  0  0  0  0  0  0  0  0  0  0  0
   18.0084    2.0929   -5.8276 N   0  0  0  0  0  0  0  0  0  0  0  0
   18.8534    3.0290   -5.1177 C   0  0  0  0  0  0  0  0  0  0  0  0
   20.1482    3.2604   -5.8617 C   0  0  0  0  0  0  0  0  0  0  0  0
   20.6412    2.3286   -6.7721 C   0  0  0  0  0  0  0  0  0  0  0  0
   21.8416    2.5318   -7.4177 C   0  0  0  0  0  0  0  0  0  0  0  0
   22.6086    3.6631   -7.1804 C   0  0  0  0  0  0  0  0  0  0  0  0
   23.8925    3.8337   -7.8521 C   0  0  0  0  0  0  0  0  0  0  0  0
   25.1575    4.1072   -7.3452 C   0  0  0  0  0  0  0  0  0  0  0  0
   25.5340    4.3123   -5.9272 C   0  0  0  0  0  0  0  0  0  0  0  0
   26.1633    4.1720   -8.2880 N   0  0  0  0  0  0  0  0  0  0  0  0
   25.6679    3.9551   -9.4846 C   0  0  0  0  0  0  0  0  0  0  0  0
   23.9888    3.6741   -9.5642 S   0  0  0  0  0  0  0  0  0  0  0  0
   22.1267    4.5948   -6.2662 C   0  0  0  0  0  0  0  0  0  0  0  0
   20.9165    4.3949   -5.6162 C   0  0  0  0  0  0  0  0  0  0  0  0
   15.9077    0.5684   -7.2149 C   0  0  0  0  0  0  0  0  0  0  0  0
   15.2142   -0.6555   -7.7629 C   0  0  1  0  0  0  0  0  0  0  0  0
   15.9918   -1.2110   -8.8373 O   0  0  0  0  0  0  0  0  0  0  0  0
   15.1829   -1.6018   -6.5729 C   0  0  0  0  0  0  0  0  0  0  0  0
   19.2547   -6.2164   -5.2939 H   0  0  0  0  0  0  0  0  0  0  0  0
   18.2483   -7.3655   -6.1949 H   0  0  0  0  0  0  0  0  0  0  0  0
   18.2881   -7.4332   -4.4137 H   0  0  0  0  0  0  0  0  0  0  0  0
   18.3924   -4.3898   -4.4689 H   0  0  0  0  0  0  0  0  0  0  0  0
   15.6307   -3.7340   -5.2351 H   0  0  0  0  0  0  0  0  0  0  0  0
   14.9219   -4.6221   -1.6353 H   0  0  0  0  0  0  0  0  0  0  0  0
   16.1875   -5.4491   -2.5266 H   0  0  0  0  0  0  0  0  0  0  0  0
   14.6292   -5.1311   -3.2939 H   0  0  0  0  0  0  0  0  0  0  0  0
   16.5792   -2.8298   -1.1211 H   0  0  0  0  0  0  0  0  0  0  0  0
   17.2953   -1.8356   -2.3826 H   0  0  0  0  0  0  0  0  0  0  0  0
   17.8468   -3.4934   -2.1441 H   0  0  0  0  0  0  0  0  0  0  0  0
   15.0084   -1.3652   -3.3825 H   0  0  0  0  0  0  0  0  0  0  0  0
   14.2657   -2.3189   -2.1082 H   0  0  0  0  0  0  0  0  0  0  0  0
   13.9210   -2.6980   -3.7936 H   0  0  0  0  0  0  0  0  0  0  0  0
   17.8572   -0.2881   -6.8621 H   0  0  0  0  0  0  0  0  0  0  0  0
   17.9202    2.2329   -6.8275 H   0  0  0  0  0  0  0  0  0  0  0  0
   18.2896    3.9642   -5.0401 H   0  0  0  0  0  0  0  0  0  0  0  0
   19.0627    2.6546   -4.1100 H   0  0  0  0  0  0  0  0  0  0  0  0
   20.1023    1.4115   -6.9908 H   0  0  0  0  0  0  0  0  0  0  0  0
   22.1858    1.7659   -8.1022 H   0  0  0  0  0  0  0  0  0  0  0  0
   25.3345    5.3435   -5.6233 H   0  0  0  0  0  0  0  0  0  0  0  0
   26.5990    4.1143   -5.7729 H   0  0  0  0  0  0  0  0  0  0  0  0
   24.9770    3.6441   -5.2651 H   0  0  0  0  0  0  0  0  0  0  0  0
   26.2812    3.9548  -10.3743 H   0  0  0  0  0  0  0  0  0  0  0  0
   22.6944    5.4947   -6.0500 H   0  0  0  0  0  0  0  0  0  0  0  0
   20.5746    5.1394   -4.9031 H   0  0  0  0  0  0  0  0  0  0  0  0
   15.1988    1.1857   -6.6503 H   0  0  0  0  0  0  0  0  0  0  0  0
   16.3496    1.1835   -8.0060 H   0  0  0  0  0  0  0  0  0  0  0  0
   14.2128   -0.4303   -8.1314 H   0  0  0  0  0  0  0  0  0  0  0  0
   16.9090   -1.3104   -8.5200 H   0  0  0  0  0  0  0  0  0  0  0  0
   15.1929   -2.6437   -6.8991 H   0  0  0  0  0  0  0  0  0  0  0  0
   14.3199   -1.4081   -5.9276 H   0  0  0  0  0  0  0  0  0  0  0  0
  1 34  1  0  0  0  0
  1 35  1  0  0  0  0
  1 36  1  0  0  0  0
  1  2  1  0  0  0  0
  2  3  2  0  0  0  0
  2  4  1  0  0  0  0
  4 37  1  0  0  0  0
  5  4  1  0  0  0  0
  5 38  1  0  0  0  0
  5  6  1  0  0  0  0
  5 10  1  0  0  0  0
  6  7  1  0  0  0  0
  6  8  1  0  0  0  0
  6  9  1  0  0  0  0
  7 39  1  0  0  0  0
  7 40  1  0  0  0  0
  7 41  1  0  0  0  0
  8 42  1  0  0  0  0
  8 43  1  0  0  0  0
  8 44  1  0  0  0  0
  9 45  1  0  0  0  0
  9 46  1  0  0  0  0
  9 47  1  0  0  0  0
 10 11  2  0  0  0  0
 10 12  1  0  0  0  0
 12 33  1  0  0  0  0
 13 12  1  0  0  0  0
 13 30  1  0  0  0  0
 13 48  1  0  0  0  0
 13 14  1  0  0  0  0
 14 15  2  0  0  0  0
 14 16  1  0  0  0  0
 16 49  1  0  0  0  0
 16 17  1  0  0  0  0
 17 50  1  0  0  0  0
 17 51  1  0  0  0  0
 17 18  1  0  0  0  0
 18 19  1  0  0  0  0
 18 29  2  0  0  0  0
 19 52  1  0  0  0  0
 19 20  2  0  0  0  0
 20 53  1  0  0  0  0
 20 21  1  0  0  0  0
 21 28  2  0  0  0  0
 21 22  1  0  0  0  0
 22 23  2  0  0  0  0
 22 27  1  0  0  0  0
 23 24  1  0  0  0  0
 23 25  1  0  0  0  0
 24 54  1  0  0  0  0
 24 55  1  0  0  0  0
 24 56  1  0  0  0  0
 25 26  2  0  0  0  0
 26 57  1  0  0  0  0
 26 27  1  0  0  0  0
 28 58  1  0  0  0  0
 28 29  1  0  0  0  0
 29 59  1  0  0  0  0
 31 30  1  0  0  0  0
 30 60  1  0  0  0  0
 30 61  1  0  0  0  0
 31 33  1  0  0  0  0
 31 62  1  0  0  0  0
 31 32  1  0  0  0  0
 32 63  1  0  0  0  0
 33 64  1  0  0  0  0
 33 65  1  0  0  0  0
M  ZZC   1 c1
M  ZZC   2 c2
M  ZZC   3 o1
M  ZZC   4 n1
M  ZZC   5 c3
M  ZZC   6 c4
M  ZZC   7 c5
M  ZZC   8 c6
M  ZZC   9 c7
M  ZZC  10 c8
M  ZZC  11 o2
M  ZZC  12 n2
M  ZZC  13 c9
M  ZZC  14 c10
M  ZZC  15 o3
M  ZZC  16 n3
M  ZZC  17 c11
M  ZZC  18 c12
M  ZZC  19 c13
M  ZZC  20 c14
M  ZZC  21 c15
M  ZZC  22 c16
M  ZZC  23 c17
M  ZZC  24 c18
M  ZZC  25 n4
M  ZZC  26 c19
M  ZZC  27 s1
M  ZZC  28 c20
M  ZZC  29 c21
M  ZZC  30 c22
M  ZZC  31 c23
M  ZZC  32 o4
M  ZZC  33 c24
M  ZZC  34 h11
M  ZZC  35 h12
M  ZZC  36 h13
M  ZZC  37 h01
M  ZZC  38 h31
M  ZZC  39 h51
M  ZZC  40 h52
M  ZZC  41 h53
M  ZZC  42 h61
M  ZZC  43 h62
M  ZZC  44 h63
M  ZZC  45 h71
M  ZZC  46 h72
M  ZZC  47 h73
M  ZZC  48 h91
M  ZZC  49 h02
M  ZZC  50 h111
M  ZZC  51 h112
M  ZZC  52 h131
M  ZZC  53 h141
M  ZZC  54 h181
M  ZZC  55 h182
M  ZZC  56 h183
M  ZZC  57 h191
M  ZZC  58 h201
M  ZZC  59 h211
M  ZZC  60 h221
M  ZZC  61 h222
M  ZZC  62 h231
M  ZZC  63 h41
M  ZZC  64 h241
M  ZZC  65 h242
M  ZZM   1 1
M  ZZI   1 111
M  ZZM   2 3
M  ZZI   2 121
M  ZZM   3 7
M  ZZI   3 81
M  ZZM   4 10
M  ZZI   4 211
M  ZZM   5 1
M  ZZI   5 113
M  ZZM   6 1
M  ZZI   6 110
M  ZZM   7 1
M  ZZI   7 111
M  ZZM   8 1
M  ZZI   8 111
M  ZZM   9 1
M  ZZI   9 111
M  ZZM  10 3
M  ZZI  10 121
M  ZZM  11 7
M  ZZI  11 81
M  ZZM  12 10
M  ZZI  12 192
M  ZZM  13 1
M  ZZI  13 113
M  ZZM  14 3
M  ZZI  14 121
M  ZZM  15 7
M  ZZI  15 81
M  ZZM  16 10
M  ZZI  16 211
M  ZZM  17 1
M  ZZI  17 112
M  ZZM  18 37
M  ZZI  18 124
M  ZZM  19 37
M  ZZI  19 125
M  ZZM  20 37
M  ZZI  20 125
M  ZZM  21 37
M  ZZI  21 124
M  ZZM  22 63
M  ZZI  22 104
M  ZZM  23 64
M  ZZI  23 105
M  ZZM  24 1
M  ZZI  24 111
M  ZZM  25 66
M  ZZI  25 222
M  ZZM  26 63
M  ZZI  26 104
M  ZZM  27 44
M  ZZI  27 248
M  ZZM  28 37
M  ZZI  28 125
M  ZZM  29 37
M  ZZI  29 125
M  ZZM  30 1
M  ZZI  30 112
M  ZZM  31 1
M  ZZI  31 113
M  ZZM  32 6
M  ZZI  32 60
M  ZZM  33 1
M  ZZI  33 112
M  ZZM  34 5
M  ZZI  34 1
M  ZZM  35 5
M  ZZI  35 1
M  ZZM  36 5
M  ZZI  36 1
M  ZZM  37 28
M  ZZI  37 11
M  ZZM  38 5
M  ZZI  38 1
M  ZZM  39 5
M  ZZI  39 1
M  ZZM  40 5
M  ZZI  40 1
M  ZZM  41 5
M  ZZI  41 1
M  ZZM  42 5
M  ZZI  42 1
M  ZZM  43 5
M  ZZI  43 1
M  ZZM  44 5
M  ZZI  44 1
M  ZZM  45 5
M  ZZI  45 1
M  ZZM  46 5
M  ZZI  46 1
M  ZZM  47 5
M  ZZI  47 1
M  ZZM  48 5
M  ZZI  48 1
M  ZZM  49 28
M  ZZI  49 11
M  ZZM  50 5
M  ZZI  50 1
M  ZZM  51 5
M  ZZI  51 1
M  ZZM  52 5
M  ZZI  52 1
M  ZZM  53 5
M  ZZI  53 1
M  ZZM  54 5
M  ZZI  54 1
M  ZZM  55 5
M  ZZI  55 1
M  ZZM  56 5
M  ZZI  56 1
M  ZZM  57 5
M  ZZI  57 1
M  ZZM  58 5
M  ZZI  58 1
M  ZZM  59 5
M  ZZI  59 1
M  ZZM  60 5
M  ZZI  60 1
M  ZZM  61 5
M  ZZI  61 1
M  ZZM  62 5
M  ZZI  62 1
M  ZZM  63 21
M  ZZI  63 20
M  ZZM  64 5
M  ZZI  64 1
M  ZZM  65 5
M  ZZI  65 1
M  END
> <IX>
1

> <NAME>
VHL_5GMP_14.pdb

> <Score>
-22.953979

> <Natom>
65

> <Nflex>
8

> <Hbond>
-6.407622

> <Hphob>
-6.347234

> <VwInt>
-30.998116

> <Dsolv>
16.182957

> <SolEl>
9.462911

> <Eintl>
8.875545

> <RecConf>
ND

> <projPath>
VHL_maps/

> <NAME_>
VHL_5GMP_14.pdb

$$$$
