VHL_5EU1_18.pdb
  MOLSOFT 04032206423D

 70 73  0  0  1  0  0  0  0  0999 V2000
   18.7470   -5.3905   -5.9487 F   0  0  0  0  0  0  0  0  0  0  0  0
   17.7094   -5.9679   -5.2221 C   0  0  0  0  0  0  0  0  0  0  0  0
   16.8272   -5.0217   -4.4722 C   0  0  0  0  0  0  0  0  0  0  0  0
   15.7579   -5.3838   -4.0032 O   0  0  0  0  0  0  0  0  0  0  0  0
   17.3086   -3.7323   -4.3754 N   0  0  0  0  0  0  0  0  0  0  0  0
   16.4687   -2.6109   -3.9340 C   0  0  1  0  0  0  0  0  0  0  0  0
   16.6714   -2.1759   -2.4499 C   0  0  0  0  0  0  0  0  0  0  0  0
   15.6444   -1.0991   -2.0671 C   0  0  0  0  0  0  0  0  0  0  0  0
   18.0728   -1.6074   -2.1909 C   0  0  0  0  0  0  0  0  0  0  0  0
   16.4463   -3.3712   -1.5097 C   0  0  0  0  0  0  0  0  0  0  0  0
   16.7447   -1.5034   -4.9723 C   0  0  0  0  0  0  0  0  0  0  0  0
   17.8947   -1.1921   -5.2595 O   0  0  0  0  0  0  0  0  0  0  0  0
   15.6403   -0.9263   -5.6018 N   0  0  0  0  0  0  0  0  0  0  0  0
   15.8002   -0.0897   -6.7846 C   0  0  2  0  0  0  0  0  0  0  0  0
   16.1077    1.3708   -6.4323 C   0  0  0  0  0  0  0  0  0  0  0  0
   15.2848    2.1248   -5.9310 O   0  0  0  0  0  0  0  0  0  0  0  0
   17.4147    1.7319   -6.6936 N   0  0  0  0  0  0  0  0  0  0  0  0
   17.9280    3.0710   -6.4583 C   0  0  0  0  0  0  0  0  0  0  0  0
   19.3367    3.2976   -6.9660 C   0  0  0  0  0  0  0  0  0  0  0  0
   20.2796    2.2794   -7.0384 C   0  0  0  0  0  0  0  0  0  0  0  0
   19.9409    1.0152   -6.6153 O   0  0  0  0  0  0  0  0  0  0  0  0
   21.5654    2.4836   -7.4940 C   0  0  0  0  0  0  0  0  0  0  0  0
   21.9765    3.7485   -7.8720 C   0  0  0  0  0  0  0  0  0  0  0  0
   23.3519    3.9484   -8.2963 C   0  0  0  0  0  0  0  0  0  0  0  0
   24.4824    4.2567   -7.5536 C   0  0  0  0  0  0  0  0  0  0  0  0
   24.5419    4.5205   -6.0979 C   0  0  0  0  0  0  0  0  0  0  0  0
   25.6606    4.2906   -8.2723 N   0  0  0  0  0  0  0  0  0  0  0  0
   25.4156    4.0207   -9.5350 C   0  0  0  0  0  0  0  0  0  0  0  0
   23.7839    3.7302   -9.9434 S   0  0  0  0  0  0  0  0  0  0  0  0
   21.0587    4.7913   -7.7999 C   0  0  0  0  0  0  0  0  0  0  0  0
   19.7592    4.5678   -7.3565 C   0  0  0  0  0  0  0  0  0  0  0  0
   14.4679   -0.2290   -7.5026 C   0  0  0  0  0  0  0  0  0  0  0  0
   13.4553   -0.4436   -6.3896 C   0  0  1  0  0  0  0  0  0  0  0  0
   12.3381   -1.2108   -6.8408 O   0  0  0  0  0  0  0  0  0  0  0  0
   14.2401   -1.2334   -5.3583 C   0  0  0  0  0  0  0  0  0  0  0  0
   17.1253   -7.2050   -5.8666 C   0  0  0  0  0  0  0  0  0  0  0  0
   18.0138   -7.3341   -4.6744 C   0  0  0  0  0  0  0  0  0  0  0  0
   18.2304   -3.5360   -4.7591 H   0  0  0  0  0  0  0  0  0  0  0  0
   15.4369   -2.9529   -4.0381 H   0  0  0  0  0  0  0  0  0  0  0  0
   15.7459   -0.2089   -2.6965 H   0  0  0  0  0  0  0  0  0  0  0  0
   15.7768   -0.7723   -1.0304 H   0  0  0  0  0  0  0  0  0  0  0  0
   14.6156   -1.4547   -2.1789 H   0  0  0  0  0  0  0  0  0  0  0  0
   18.2277   -1.3886   -1.1296 H   0  0  0  0  0  0  0  0  0  0  0  0
   18.2471   -0.6750   -2.7357 H   0  0  0  0  0  0  0  0  0  0  0  0
   18.8452   -2.3155   -2.4882 H   0  0  0  0  0  0  0  0  0  0  0  0
   16.5114   -3.0731   -0.4583 H   0  0  0  0  0  0  0  0  0  0  0  0
   17.1922   -4.1537   -1.6627 H   0  0  0  0  0  0  0  0  0  0  0  0
   15.4586   -3.8201   -1.6589 H   0  0  0  0  0  0  0  0  0  0  0  0
   16.6056   -0.4866   -7.4142 H   0  0  0  0  0  0  0  0  0  0  0  0
   18.0665    1.0203   -7.0184 H   0  0  0  0  0  0  0  0  0  0  0  0
   17.2342    3.7735   -6.9337 H   0  0  0  0  0  0  0  0  0  0  0  0
   17.8959    3.2537   -5.3789 H   0  0  0  0  0  0  0  0  0  0  0  0
   20.3788    0.3921   -7.2225 H   0  0  0  0  0  0  0  0  0  0  0  0
   22.2568    1.6506   -7.5385 H   0  0  0  0  0  0  0  0  0  0  0  0
   23.9504    5.4030   -5.8378 H   0  0  0  0  0  0  0  0  0  0  0  0
   25.5711    4.6947   -5.7707 H   0  0  0  0  0  0  0  0  0  0  0  0
   24.1567    3.6677   -5.5331 H   0  0  0  0  0  0  0  0  0  0  0  0
   26.1962    3.9867  -10.2815 H   0  0  0  0  0  0  0  0  0  0  0  0
   21.3521    5.7955   -8.0917 H   0  0  0  0  0  0  0  0  0  0  0  0
   19.0696    5.4061   -7.3138 H   0  0  0  0  0  0  0  0  0  0  0  0
   14.2143    0.6235   -8.1416 H   0  0  0  0  0  0  0  0  0  0  0  0
   14.5042   -1.1192   -8.1381 H   0  0  0  0  0  0  0  0  0  0  0  0
   13.0963    0.5045   -5.9745 H   0  0  0  0  0  0  0  0  0  0  0  0
   11.8656   -0.6972   -7.5216 H   0  0  0  0  0  0  0  0  0  0  0  0
   14.0744   -2.3096   -5.4656 H   0  0  0  0  0  0  0  0  0  0  0  0
   13.9636   -0.9496   -4.3401 H   0  0  0  0  0  0  0  0  0  0  0  0
   16.0759   -7.4222   -5.7334 H   0  0  0  0  0  0  0  0  0  0  0  0
   17.5325   -7.5526   -6.8047 H   0  0  0  0  0  0  0  0  0  0  0  0
   19.0034   -7.7335   -4.8491 H   0  0  0  0  0  0  0  0  0  0  0  0
   17.5565   -7.6319   -3.7414 H   0  0  0  0  0  0  0  0  0  0  0  0
  2  1  1  0  0  0  0
  2 36  1  0  0  0  0
  2  3  1  0  0  0  0
  2 37  1  0  0  0  0
  3  4  2  0  0  0  0
  3  5  1  0  0  0  0
  5 38  1  0  0  0  0
  6  5  1  0  0  0  0
  6 39  1  0  0  0  0
  6  7  1  0  0  0  0
  6 11  1  0  0  0  0
  7  8  1  0  0  0  0
  7  9  1  0  0  0  0
  7 10  1  0  0  0  0
  8 40  1  0  0  0  0
  8 41  1  0  0  0  0
  8 42  1  0  0  0  0
  9 43  1  0  0  0  0
  9 44  1  0  0  0  0
  9 45  1  0  0  0  0
 10 46  1  0  0  0  0
 10 47  1  0  0  0  0
 10 48  1  0  0  0  0
 11 12  2  0  0  0  0
 11 13  1  0  0  0  0
 13 35  1  0  0  0  0
 14 13  1  0  0  0  0
 14 32  1  0  0  0  0
 14 49  1  0  0  0  0
 14 15  1  0  0  0  0
 15 16  2  0  0  0  0
 15 17  1  0  0  0  0
 17 50  1  0  0  0  0
 17 18  1  0  0  0  0
 18 51  1  0  0  0  0
 18 52  1  0  0  0  0
 18 19  1  0  0  0  0
 19 20  2  0  0  0  0
 19 31  1  0  0  0  0
 20 21  1  0  0  0  0
 20 22  1  0  0  0  0
 21 53  1  0  0  0  0
 22 54  1  0  0  0  0
 22 23  2  0  0  0  0
 23 30  1  0  0  0  0
 23 24  1  0  0  0  0
 24 25  2  0  0  0  0
 24 29  1  0  0  0  0
 25 26  1  0  0  0  0
 25 27  1  0  0  0  0
 26 55  1  0  0  0  0
 26 56  1  0  0  0  0
 26 57  1  0  0  0  0
 27 28  2  0  0  0  0
 28 58  1  0  0  0  0
 28 29  1  0  0  0  0
 30 59  1  0  0  0  0
 30 31  2  0  0  0  0
 31 60  1  0  0  0  0
 33 32  1  0  0  0  0
 32 61  1  0  0  0  0
 32 62  1  0  0  0  0
 33 35  1  0  0  0  0
 33 63  1  0  0  0  0
 33 34  1  0  0  0  0
 34 64  1  0  0  0  0
 35 65  1  0  0  0  0
 35 66  1  0  0  0  0
 36 67  1  0  0  0  0
 36 68  1  0  0  0  0
 36 37  1  0  0  0  0
 37 69  1  0  0  0  0
 37 70  1  0  0  0  0
M  ZZC   1 f1
M  ZZC   2 c1
M  ZZC   3 c2
M  ZZC   4 o1
M  ZZC   5 n1
M  ZZC   6 c3
M  ZZC   7 c4
M  ZZC   8 c5
M  ZZC   9 c6
M  ZZC  10 c7
M  ZZC  11 c8
M  ZZC  12 o2
M  ZZC  13 n2
M  ZZC  14 c9
M  ZZC  15 c10
M  ZZC  16 o3
M  ZZC  17 n3
M  ZZC  18 c11
M  ZZC  19 c12
M  ZZC  20 c13
M  ZZC  21 o4
M  ZZC  22 c14
M  ZZC  23 c15
M  ZZC  24 c16
M  ZZC  25 c17
M  ZZC  26 c18
M  ZZC  27 n4
M  ZZC  28 c19
M  ZZC  29 s1
M  ZZC  30 c20
M  ZZC  31 c21
M  ZZC  32 c22
M  ZZC  33 c23
M  ZZC  34 o5
M  ZZC  35 c24
M  ZZC  36 c25
M  ZZC  37 c26
M  ZZC  38 h11
M  ZZC  39 h31
M  ZZC  40 h51
M  ZZC  41 h52
M  ZZC  42 h53
M  ZZC  43 h61
M  ZZC  44 h62
M  ZZC  45 h63
M  ZZC  46 h71
M  ZZC  47 h72
M  ZZC  48 h73
M  ZZC  49 h91
M  ZZC  50 h01
M  ZZC  51 h111
M  ZZC  52 h112
M  ZZC  53 h41
M  ZZC  54 h141
M  ZZC  55 h181
M  ZZC  56 h182
M  ZZC  57 h183
M  ZZC  58 h191
M  ZZC  59 h201
M  ZZC  60 h211
M  ZZC  61 h221
M  ZZC  62 h222
M  ZZC  63 h231
M  ZZC  64 h02
M  ZZC  65 h241
M  ZZC  66 h242
M  ZZC  67 h251
M  ZZC  68 h252
M  ZZC  69 h261
M  ZZC  70 h262
M  ZZM   1 11
M  ZZI   1 90
M  ZZM   2 22
M  ZZI   2 109
M  ZZM   3 3
M  ZZI   3 121
M  ZZM   4 7
M  ZZI   4 81
M  ZZM   5 10
M  ZZI   5 211
M  ZZM   6 1
M  ZZI   6 113
M  ZZM   7 1
M  ZZI   7 110
M  ZZM   8 1
M  ZZI   8 111
M  ZZM   9 1
M  ZZI   9 111
M  ZZM  10 1
M  ZZI  10 111
M  ZZM  11 3
M  ZZI  11 121
M  ZZM  12 7
M  ZZI  12 81
M  ZZM  13 10
M  ZZI  13 192
M  ZZM  14 1
M  ZZI  14 113
M  ZZM  15 3
M  ZZI  15 121
M  ZZM  16 7
M  ZZI  16 81
M  ZZM  17 10
M  ZZI  17 211
M  ZZM  18 1
M  ZZI  18 112
M  ZZM  19 37
M  ZZI  19 124
M  ZZM  20 37
M  ZZI  20 124
M  ZZM  21 6
M  ZZI  21 62
M  ZZM  22 37
M  ZZI  22 125
M  ZZM  23 37
M  ZZI  23 124
M  ZZM  24 63
M  ZZI  24 104
M  ZZM  25 64
M  ZZI  25 105
M  ZZM  26 1
M  ZZI  26 111
M  ZZM  27 66
M  ZZI  27 222
M  ZZM  28 63
M  ZZI  28 104
M  ZZM  29 44
M  ZZI  29 248
M  ZZM  30 37
M  ZZI  30 125
M  ZZM  31 37
M  ZZI  31 125
M  ZZM  32 1
M  ZZI  32 112
M  ZZM  33 1
M  ZZI  33 113
M  ZZM  34 6
M  ZZI  34 60
M  ZZM  35 1
M  ZZI  35 112
M  ZZM  36 22
M  ZZI  36 109
M  ZZM  37 22
M  ZZI  37 109
M  ZZM  38 28
M  ZZI  38 11
M  ZZM  39 5
M  ZZI  39 1
M  ZZM  40 5
M  ZZI  40 1
M  ZZM  41 5
M  ZZI  41 1
M  ZZM  42 5
M  ZZI  42 1
M  ZZM  43 5
M  ZZI  43 1
M  ZZM  44 5
M  ZZI  44 1
M  ZZM  45 5
M  ZZI  45 1
M  ZZM  46 5
M  ZZI  46 1
M  ZZM  47 5
M  ZZI  47 1
M  ZZM  48 5
M  ZZI  48 1
M  ZZM  49 5
M  ZZI  49 1
M  ZZM  50 28
M  ZZI  50 11
M  ZZM  51 5
M  ZZI  51 1
M  ZZM  52 5
M  ZZI  52 1
M  ZZM  53 29
M  ZZI  53 27
M  ZZM  54 5
M  ZZI  54 1
M  ZZM  55 5
M  ZZI  55 1
M  ZZM  56 5
M  ZZI  56 1
M  ZZM  57 5
M  ZZI  57 1
M  ZZM  58 5
M  ZZI  58 1
M  ZZM  59 5
M  ZZI  59 1
M  ZZM  60 5
M  ZZI  60 1
M  ZZM  61 5
M  ZZI  61 1
M  ZZM  62 5
M  ZZI  62 1
M  ZZM  63 5
M  ZZI  63 1
M  ZZM  64 21
M  ZZI  64 20
M  ZZM  65 5
M  ZZI  65 1
M  ZZM  66 5
M  ZZI  66 1
M  ZZM  67 5
M  ZZI  67 1
M  ZZM  68 5
M  ZZI  68 1
M  ZZM  69 5
M  ZZI  69 1
M  ZZM  70 5
M  ZZI  70 1
M  END
> <IX>
1

> <NAME>
VHL_5EU1_18.pdb

> <Score>
-22.086918

> <Natom>
70

> <Nflex>
9

> <Hbond>
-8.494369

> <Hphob>
-6.313449

> <VwInt>
-33.374476

> <Dsolv>
20.643796

> <SolEl>
16.014601

> <Eintl>
9.259733

> <RecConf>
ND

> <projPath>
VHL_maps/

> <NAME_>
VHL_5EU1_18.pdb

$$$$
