VHL_6UT0_1.pdb
  MOLSOFT 04032206433D

 65 67  0  0  1  0  0  0  0  0999 V2000
   18.0471   -7.0363   -5.1019 C   0  0  0  0  0  0  0  0  0  0  0  0
   16.9072   -6.0580   -5.0628 C   0  0  0  0  0  0  0  0  0  0  0  0
   15.8345   -6.3255   -5.5760 O   0  0  0  0  0  0  0  0  0  0  0  0
   17.1963   -4.9001   -4.3697 N   0  0  0  0  0  0  0  0  0  0  0  0
   16.2609   -3.7789   -4.2002 C   0  0  1  0  0  0  0  0  0  0  0  0
   15.8510   -3.5602   -2.7122 C   0  0  0  0  0  0  0  0  0  0  0  0
   17.0234   -3.0772   -1.8458 C   0  0  0  0  0  0  0  0  0  0  0  0
   14.7190   -2.5315   -2.5764 C   0  0  0  0  0  0  0  0  0  0  0  0
   15.3229   -4.8840   -2.1445 C   0  0  0  0  0  0  0  0  0  0  0  0
   16.9618   -2.5784   -4.8594 C   0  0  0  0  0  0  0  0  0  0  0  0
   18.1656   -2.4010   -4.7302 O   0  0  0  0  0  0  0  0  0  0  0  0
   16.1920   -1.6737   -5.5872 N   0  0  0  0  0  0  0  0  0  0  0  0
   16.8313   -0.5856   -6.3149 C   0  0  2  0  0  0  0  0  0  0  0  0
   17.3681    0.5056   -5.3911 C   0  0  0  0  0  0  0  0  0  0  0  0
   16.9223    0.7073   -4.2693 O   0  0  0  0  0  0  0  0  0  0  0  0
   18.3286    1.2952   -5.9997 N   0  0  0  0  0  0  0  0  0  0  0  0
   18.6914    2.5980   -5.4779 C   0  0  0  0  0  0  0  0  0  0  0  0
   17.6887    3.6057   -5.9729 C   0  0  0  0  0  0  0  0  0  0  0  0
   16.4431    3.6906   -5.3598 C   0  0  0  0  0  0  0  0  0  0  0  0
   15.4133    4.3832   -5.9571 C   0  0  0  0  0  0  0  0  0  0  0  0
   15.6196    5.0407   -7.1596 C   0  0  0  0  0  0  0  0  0  0  0  0
   14.4777    5.5954   -7.8533 C   0  0  0  0  0  0  0  0  0  0  0  0
   13.4473    4.9353   -8.5074 C   0  0  0  0  0  0  0  0  0  0  0  0
   13.3257    3.4746   -8.7341 C   0  0  0  0  0  0  0  0  0  0  0  0
   12.4349    5.7530   -8.9555 N   0  0  0  0  0  0  0  0  0  0  0  0
   12.7448    7.0043   -8.6958 C   0  0  0  0  0  0  0  0  0  0  0  0
   14.2242    7.2885   -7.9006 S   0  0  0  0  0  0  0  0  0  0  0  0
   16.8960    5.0791   -7.7077 C   0  0  0  0  0  0  0  0  0  0  0  0
   17.9212    4.3501   -7.1265 C   0  0  0  0  0  0  0  0  0  0  0  0
   15.7426   -0.0335   -7.2348 C   0  0  0  0  0  0  0  0  0  0  0  0
   14.4625   -0.3920   -6.5024 C   0  0  1  0  0  0  0  0  0  0  0  0
   13.3489   -0.4411   -7.3899 O   0  0  0  0  0  0  0  0  0  0  0  0
   14.7969   -1.7626   -5.9486 C   0  0  0  0  0  0  0  0  0  0  0  0
   19.0034   -6.5178   -5.2211 H   0  0  0  0  0  0  0  0  0  0  0  0
   17.9135   -7.7152   -5.9491 H   0  0  0  0  0  0  0  0  0  0  0  0
   18.0484   -7.6147   -4.1755 H   0  0  0  0  0  0  0  0  0  0  0  0
   18.1478   -4.7711   -4.0426 H   0  0  0  0  0  0  0  0  0  0  0  0
   15.3616   -4.0188   -4.7611 H   0  0  0  0  0  0  0  0  0  0  0  0
   16.7380   -3.0070   -0.7912 H   0  0  0  0  0  0  0  0  0  0  0  0
   17.3744   -2.0860   -2.1491 H   0  0  0  0  0  0  0  0  0  0  0  0
   17.8719   -3.7570   -1.9012 H   0  0  0  0  0  0  0  0  0  0  0  0
   15.0216   -1.5525   -2.9626 H   0  0  0  0  0  0  0  0  0  0  0  0
   14.4379   -2.3829   -1.5295 H   0  0  0  0  0  0  0  0  0  0  0  0
   13.8261   -2.8272   -3.1346 H   0  0  0  0  0  0  0  0  0  0  0  0
   14.9908   -4.7657   -1.1101 H   0  0  0  0  0  0  0  0  0  0  0  0
   16.0874   -5.6633   -2.1535 H   0  0  0  0  0  0  0  0  0  0  0  0
   14.4712   -5.2573   -2.7219 H   0  0  0  0  0  0  0  0  0  0  0  0
   17.6601   -0.9864   -6.8955 H   0  0  0  0  0  0  0  0  0  0  0  0
   18.6960    1.0221   -6.9067 H   0  0  0  0  0  0  0  0  0  0  0  0
   18.7116    2.5717   -4.3827 H   0  0  0  0  0  0  0  0  0  0  0  0
   19.7008    2.8352   -5.8297 H   0  0  0  0  0  0  0  0  0  0  0  0
   16.2387    3.1442   -4.4439 H   0  0  0  0  0  0  0  0  0  0  0  0
   14.4276    4.3658   -5.4995 H   0  0  0  0  0  0  0  0  0  0  0  0
   12.4242    3.2473   -9.3099 H   0  0  0  0  0  0  0  0  0  0  0  0
   13.2544    2.9308   -7.7882 H   0  0  0  0  0  0  0  0  0  0  0  0
   14.1897    3.0865   -9.2802 H   0  0  0  0  0  0  0  0  0  0  0  0
   12.1037    7.8268   -8.9580 H   0  0  0  0  0  0  0  0  0  0  0  0
   17.0844    5.6301   -8.6249 H   0  0  0  0  0  0  0  0  0  0  0  0
   18.8914    4.3216   -7.6139 H   0  0  0  0  0  0  0  0  0  0  0  0
   15.8171    1.0414   -7.4297 H   0  0  0  0  0  0  0  0  0  0  0  0
   15.7719   -0.5328   -8.2109 H   0  0  0  0  0  0  0  0  0  0  0  0
   14.2616    0.3307   -5.7022 H   0  0  0  0  0  0  0  0  0  0  0  0
   12.5389   -0.3606   -6.8559 H   0  0  0  0  0  0  0  0  0  0  0  0
   14.7185   -2.5227   -6.7299 H   0  0  0  0  0  0  0  0  0  0  0  0
   14.1519   -2.0581   -5.1221 H   0  0  0  0  0  0  0  0  0  0  0  0
  1 34  1  0  0  0  0
  1 35  1  0  0  0  0
  1 36  1  0  0  0  0
  1  2  1  0  0  0  0
  2  3  2  0  0  0  0
  2  4  1  0  0  0  0
  4 37  1  0  0  0  0
  5  4  1  0  0  0  0
  5 38  1  0  0  0  0
  5  6  1  0  0  0  0
  5 10  1  0  0  0  0
  6  7  1  0  0  0  0
  6  8  1  0  0  0  0
  6  9  1  0  0  0  0
  7 39  1  0  0  0  0
  7 40  1  0  0  0  0
  7 41  1  0  0  0  0
  8 42  1  0  0  0  0
  8 43  1  0  0  0  0
  8 44  1  0  0  0  0
  9 45  1  0  0  0  0
  9 46  1  0  0  0  0
  9 47  1  0  0  0  0
 10 11  2  0  0  0  0
 10 12  1  0  0  0  0
 12 33  1  0  0  0  0
 13 12  1  0  0  0  0
 13 30  1  0  0  0  0
 13 48  1  0  0  0  0
 13 14  1  0  0  0  0
 14 15  2  0  0  0  0
 14 16  1  0  0  0  0
 16 49  1  0  0  0  0
 16 17  1  0  0  0  0
 17 50  1  0  0  0  0
 17 51  1  0  0  0  0
 17 18  1  0  0  0  0
 18 19  1  0  0  0  0
 18 29  2  0  0  0  0
 19 52  1  0  0  0  0
 19 20  2  0  0  0  0
 20 53  1  0  0  0  0
 20 21  1  0  0  0  0
 21 28  2  0  0  0  0
 21 22  1  0  0  0  0
 22 23  2  0  0  0  0
 22 27  1  0  0  0  0
 23 24  1  0  0  0  0
 23 25  1  0  0  0  0
 24 54  1  0  0  0  0
 24 55  1  0  0  0  0
 24 56  1  0  0  0  0
 25 26  2  0  0  0  0
 26 57  1  0  0  0  0
 26 27  1  0  0  0  0
 28 58  1  0  0  0  0
 28 29  1  0  0  0  0
 29 59  1  0  0  0  0
 31 30  1  0  0  0  0
 30 60  1  0  0  0  0
 30 61  1  0  0  0  0
 31 33  1  0  0  0  0
 31 62  1  0  0  0  0
 31 32  1  0  0  0  0
 32 63  1  0  0  0  0
 33 64  1  0  0  0  0
 33 65  1  0  0  0  0
M  ZZC   1 c1
M  ZZC   2 c2
M  ZZC   3 o1
M  ZZC   4 n1
M  ZZC   5 c3
M  ZZC   6 c4
M  ZZC   7 c5
M  ZZC   8 c6
M  ZZC   9 c7
M  ZZC  10 c8
M  ZZC  11 o2
M  ZZC  12 n2
M  ZZC  13 c9
M  ZZC  14 c10
M  ZZC  15 o3
M  ZZC  16 n3
M  ZZC  17 c11
M  ZZC  18 c12
M  ZZC  19 c13
M  ZZC  20 c14
M  ZZC  21 c15
M  ZZC  22 c16
M  ZZC  23 c17
M  ZZC  24 c18
M  ZZC  25 n4
M  ZZC  26 c19
M  ZZC  27 s1
M  ZZC  28 c20
M  ZZC  29 c21
M  ZZC  30 c22
M  ZZC  31 c23
M  ZZC  32 o4
M  ZZC  33 c24
M  ZZC  34 h11
M  ZZC  35 h12
M  ZZC  36 h13
M  ZZC  37 h01
M  ZZC  38 h31
M  ZZC  39 h51
M  ZZC  40 h52
M  ZZC  41 h53
M  ZZC  42 h61
M  ZZC  43 h62
M  ZZC  44 h63
M  ZZC  45 h71
M  ZZC  46 h72
M  ZZC  47 h73
M  ZZC  48 h91
M  ZZC  49 h02
M  ZZC  50 h111
M  ZZC  51 h112
M  ZZC  52 h131
M  ZZC  53 h141
M  ZZC  54 h181
M  ZZC  55 h182
M  ZZC  56 h183
M  ZZC  57 h191
M  ZZC  58 h201
M  ZZC  59 h211
M  ZZC  60 h221
M  ZZC  61 h222
M  ZZC  62 h231
M  ZZC  63 h41
M  ZZC  64 h241
M  ZZC  65 h242
M  ZZM   1 1
M  ZZI   1 111
M  ZZM   2 3
M  ZZI   2 121
M  ZZM   3 7
M  ZZI   3 81
M  ZZM   4 10
M  ZZI   4 211
M  ZZM   5 1
M  ZZI   5 113
M  ZZM   6 1
M  ZZI   6 110
M  ZZM   7 1
M  ZZI   7 111
M  ZZM   8 1
M  ZZI   8 111
M  ZZM   9 1
M  ZZI   9 111
M  ZZM  10 3
M  ZZI  10 121
M  ZZM  11 7
M  ZZI  11 81
M  ZZM  12 10
M  ZZI  12 192
M  ZZM  13 1
M  ZZI  13 113
M  ZZM  14 3
M  ZZI  14 121
M  ZZM  15 7
M  ZZI  15 81
M  ZZM  16 10
M  ZZI  16 211
M  ZZM  17 1
M  ZZI  17 112
M  ZZM  18 37
M  ZZI  18 124
M  ZZM  19 37
M  ZZI  19 125
M  ZZM  20 37
M  ZZI  20 125
M  ZZM  21 37
M  ZZI  21 124
M  ZZM  22 63
M  ZZI  22 104
M  ZZM  23 64
M  ZZI  23 105
M  ZZM  24 1
M  ZZI  24 111
M  ZZM  25 66
M  ZZI  25 222
M  ZZM  26 63
M  ZZI  26 104
M  ZZM  27 44
M  ZZI  27 248
M  ZZM  28 37
M  ZZI  28 125
M  ZZM  29 37
M  ZZI  29 125
M  ZZM  30 1
M  ZZI  30 112
M  ZZM  31 1
M  ZZI  31 113
M  ZZM  32 6
M  ZZI  32 60
M  ZZM  33 1
M  ZZI  33 112
M  ZZM  34 5
M  ZZI  34 1
M  ZZM  35 5
M  ZZI  35 1
M  ZZM  36 5
M  ZZI  36 1
M  ZZM  37 28
M  ZZI  37 11
M  ZZM  38 5
M  ZZI  38 1
M  ZZM  39 5
M  ZZI  39 1
M  ZZM  40 5
M  ZZI  40 1
M  ZZM  41 5
M  ZZI  41 1
M  ZZM  42 5
M  ZZI  42 1
M  ZZM  43 5
M  ZZI  43 1
M  ZZM  44 5
M  ZZI  44 1
M  ZZM  45 5
M  ZZI  45 1
M  ZZM  46 5
M  ZZI  46 1
M  ZZM  47 5
M  ZZI  47 1
M  ZZM  48 5
M  ZZI  48 1
M  ZZM  49 28
M  ZZI  49 11
M  ZZM  50 5
M  ZZI  50 1
M  ZZM  51 5
M  ZZI  51 1
M  ZZM  52 5
M  ZZI  52 1
M  ZZM  53 5
M  ZZI  53 1
M  ZZM  54 5
M  ZZI  54 1
M  ZZM  55 5
M  ZZI  55 1
M  ZZM  56 5
M  ZZI  56 1
M  ZZM  57 5
M  ZZI  57 1
M  ZZM  58 5
M  ZZI  58 1
M  ZZM  59 5
M  ZZI  59 1
M  ZZM  60 5
M  ZZI  60 1
M  ZZM  61 5
M  ZZI  61 1
M  ZZM  62 5
M  ZZI  62 1
M  ZZM  63 21
M  ZZI  63 20
M  ZZM  64 5
M  ZZI  64 1
M  ZZM  65 5
M  ZZI  65 1
M  END
> <IX>
1

> <NAME>
VHL_6UT0_1.pdb

> <Score>
-7.077045

> <Natom>
65

> <Nflex>
8

> <Hbond>
-6.208733

> <Hphob>
-6.781886

> <VwInt>
-28.184215

> <Dsolv>
21.75239

> <SolEl>
23.860124

> <Eintl>
7.495257

> <RecConf>
ND

> <projPath>
VHL_maps/

> <NAME_>
VHL_6UT0_1.pdb

$$$$
