VHL_5EHR_15.pdb
  MOLSOFT 04032206393D

 68 70  0  0  1  0  0  0  0  0999 V2000
   18.4744    2.7623   -4.6671 C   0  0  0  0  0  0  0  0  0  0  0  0
   18.1893    1.3485   -5.0899 C   0  0  0  0  0  0  0  0  0  0  0  0
   19.0802    0.5554   -5.3570 O   0  0  0  0  0  0  0  0  0  0  0  0
   16.8371    1.0738   -5.1431 N   0  0  0  0  0  0  0  0  0  0  0  0
   16.3165   -0.2291   -5.5582 C   0  0  2  0  0  0  0  0  0  0  0  0
   15.5179   -0.1489   -6.8913 C   0  0  0  0  0  0  0  0  0  0  0  0
   15.1638   -1.5678   -7.3390 C   0  0  0  0  0  0  0  0  0  0  0  0
   16.3861    0.4874   -7.9845 C   0  0  0  0  0  0  0  0  0  0  0  0
   14.2185    0.6712   -6.7852 C   0  0  0  0  0  0  0  0  0  0  0  0
   15.4786   -0.7641   -4.3825 C   0  0  0  0  0  0  0  0  0  0  0  0
   14.6068   -0.0780   -3.8629 O   0  0  0  0  0  0  0  0  0  0  0  0
   15.7578   -2.0516   -3.9209 N   0  0  0  0  0  0  0  0  0  0  0  0
   14.9900   -2.6416   -2.8311 C   0  0  2  0  0  0  0  0  0  0  0  0
   15.4330   -2.0069   -1.5072 C   0  0  0  0  0  0  0  0  0  0  0  0
   16.6100   -1.8219   -1.2263 O   0  0  0  0  0  0  0  0  0  0  0  0
   14.3867   -1.6711   -0.6663 N   0  0  0  0  0  0  0  0  0  0  0  0
   14.5954   -0.9742    0.5965 C   0  0  1  0  0  0  0  0  0  0  0  0
   13.6334    0.2113    0.6672 C   0  0  0  0  0  0  0  0  0  0  0  0
   14.5238   -1.9411    1.7674 C   0  0  0  0  0  0  0  0  0  0  0  0
   15.4866   -2.9394    1.8880 C   0  0  0  0  0  0  0  0  0  0  0  0
   15.4413   -3.8705    2.9086 C   0  0  0  0  0  0  0  0  0  0  0  0
   14.4314   -3.8449    3.8640 C   0  0  0  0  0  0  0  0  0  0  0  0
   14.3330   -4.8907    4.8834 C   0  0  0  0  0  0  0  0  0  0  0  0
   15.3072   -5.5427    5.6349 C   0  0  0  0  0  0  0  0  0  0  0  0
   16.7682   -5.2987    5.6289 C   0  0  0  0  0  0  0  0  0  0  0  0
   14.8380   -6.5289    6.4800 N   0  0  0  0  0  0  0  0  0  0  0  0
   13.5327   -6.6194    6.3768 C   0  0  0  0  0  0  0  0  0  0  0  0
   12.7884   -5.5487    5.2786 S   0  0  0  0  0  0  0  0  0  0  0  0
   13.4977   -2.8164    3.7804 C   0  0  0  0  0  0  0  0  0  0  0  0
   13.5385   -1.8891    2.7527 C   0  0  0  0  0  0  0  0  0  0  0  0
   15.3424   -4.1223   -2.8785 C   0  0  0  0  0  0  0  0  0  0  0  0
   16.7643   -4.1279   -3.4116 C   0  0  1  0  0  0  0  0  0  0  0  0
   17.0680   -5.3667   -4.0490 O   0  0  0  0  0  0  0  0  0  0  0  0
   16.7850   -2.9649   -4.3921 C   0  0  0  0  0  0  0  0  0  0  0  0
   17.9264    3.4623   -5.3055 H   0  0  0  0  0  0  0  0  0  0  0  0
   19.5453    2.9666   -4.7580 H   0  0  0  0  0  0  0  0  0  0  0  0
   18.1713    2.9024   -3.6251 H   0  0  0  0  0  0  0  0  0  0  0  0
   16.1742    1.7813   -4.8411 H   0  0  0  0  0  0  0  0  0  0  0  0
   17.1797   -0.8792   -5.7164 H   0  0  0  0  0  0  0  0  0  0  0  0
   14.6739   -1.5686   -8.3152 H   0  0  0  0  0  0  0  0  0  0  0  0
   14.4801   -2.0489   -6.6402 H   0  0  0  0  0  0  0  0  0  0  0  0
   16.0550   -2.1938   -7.4139 H   0  0  0  0  0  0  0  0  0  0  0  0
   16.6246    1.5324   -7.7650 H   0  0  0  0  0  0  0  0  0  0  0  0
   15.8781    0.4735   -8.9501 H   0  0  0  0  0  0  0  0  0  0  0  0
   17.3264   -0.0522   -8.1139 H   0  0  0  0  0  0  0  0  0  0  0  0
   13.4829    0.1989   -6.1276 H   0  0  0  0  0  0  0  0  0  0  0  0
   13.7377    0.7750   -7.7635 H   0  0  0  0  0  0  0  0  0  0  0  0
   14.4034    1.6826   -6.4110 H   0  0  0  0  0  0  0  0  0  0  0  0
   13.9192   -2.4706   -2.9929 H   0  0  0  0  0  0  0  0  0  0  0  0
   13.4361   -1.9153   -0.9209 H   0  0  0  0  0  0  0  0  0  0  0  0
   15.6067   -0.5526    0.5935 H   0  0  0  0  0  0  0  0  0  0  0  0
   13.7899    0.7824    1.5880 H   0  0  0  0  0  0  0  0  0  0  0  0
   12.5882   -0.1136    0.6528 H   0  0  0  0  0  0  0  0  0  0  0  0
   13.7886    0.9062   -0.1638 H   0  0  0  0  0  0  0  0  0  0  0  0
   16.2893   -3.0125    1.1604 H   0  0  0  0  0  0  0  0  0  0  0  0
   16.2001   -4.6456    2.9253 H   0  0  0  0  0  0  0  0  0  0  0  0
   17.2322   -5.7512    4.7481 H   0  0  0  0  0  0  0  0  0  0  0  0
   17.2404   -5.7372    6.5131 H   0  0  0  0  0  0  0  0  0  0  0  0
   16.9920   -4.2279    5.6334 H   0  0  0  0  0  0  0  0  0  0  0  0
   12.9556   -7.3294    6.9518 H   0  0  0  0  0  0  0  0  0  0  0  0
   12.7107   -2.7237    4.5222 H   0  0  0  0  0  0  0  0  0  0  0  0
   12.7699   -1.1244    2.7347 H   0  0  0  0  0  0  0  0  0  0  0  0
   15.2632   -4.6251   -1.9088 H   0  0  0  0  0  0  0  0  0  0  0  0
   14.6815   -4.6567   -3.5692 H   0  0  0  0  0  0  0  0  0  0  0  0
   17.4733   -3.9627   -2.5942 H   0  0  0  0  0  0  0  0  0  0  0  0
   18.0176   -5.3464   -4.2701 H   0  0  0  0  0  0  0  0  0  0  0  0
   16.5488   -3.2839   -5.4116 H   0  0  0  0  0  0  0  0  0  0  0  0
   17.7617   -2.4717   -4.4067 H   0  0  0  0  0  0  0  0  0  0  0  0
  1 35  1  0  0  0  0
  1 36  1  0  0  0  0
  1 37  1  0  0  0  0
  1  2  1  0  0  0  0
  2  3  2  0  0  0  0
  2  4  1  0  0  0  0
  4 38  1  0  0  0  0
  5  4  1  0  0  0  0
  5 39  1  0  0  0  0
  5  6  1  0  0  0  0
  5 10  1  0  0  0  0
  6  7  1  0  0  0  0
  6  8  1  0  0  0  0
  6  9  1  0  0  0  0
  7 40  1  0  0  0  0
  7 41  1  0  0  0  0
  7 42  1  0  0  0  0
  8 43  1  0  0  0  0
  8 44  1  0  0  0  0
  8 45  1  0  0  0  0
  9 46  1  0  0  0  0
  9 47  1  0  0  0  0
  9 48  1  0  0  0  0
 10 11  2  0  0  0  0
 10 12  1  0  0  0  0
 12 34  1  0  0  0  0
 13 12  1  0  0  0  0
 13 31  1  0  0  0  0
 13 49  1  0  0  0  0
 13 14  1  0  0  0  0
 14 15  2  0  0  0  0
 14 16  1  0  0  0  0
 16 50  1  0  0  0  0
 17 16  1  0  0  0  0
 17 51  1  0  0  0  0
 17 18  1  0  0  0  0
 17 19  1  0  0  0  0
 18 52  1  0  0  0  0
 18 53  1  0  0  0  0
 18 54  1  0  0  0  0
 19 20  1  0  0  0  0
 19 30  2  0  0  0  0
 20 55  1  0  0  0  0
 20 21  2  0  0  0  0
 21 56  1  0  0  0  0
 21 22  1  0  0  0  0
 22 29  2  0  0  0  0
 22 23  1  0  0  0  0
 23 24  2  0  0  0  0
 23 28  1  0  0  0  0
 24 25  1  0  0  0  0
 24 26  1  0  0  0  0
 25 57  1  0  0  0  0
 25 58  1  0  0  0  0
 25 59  1  0  0  0  0
 26 27  2  0  0  0  0
 27 60  1  0  0  0  0
 27 28  1  0  0  0  0
 29 61  1  0  0  0  0
 29 30  1  0  0  0  0
 30 62  1  0  0  0  0
 32 31  1  0  0  0  0
 31 63  1  0  0  0  0
 31 64  1  0  0  0  0
 32 34  1  0  0  0  0
 32 65  1  0  0  0  0
 32 33  1  0  0  0  0
 33 66  1  0  0  0  0
 34 67  1  0  0  0  0
 34 68  1  0  0  0  0
M  ZZC   1 c1
M  ZZC   2 c2
M  ZZC   3 o1
M  ZZC   4 n1
M  ZZC   5 c3
M  ZZC   6 c4
M  ZZC   7 c5
M  ZZC   8 c6
M  ZZC   9 c7
M  ZZC  10 c8
M  ZZC  11 o2
M  ZZC  12 n2
M  ZZC  13 c9
M  ZZC  14 c10
M  ZZC  15 o3
M  ZZC  16 n3
M  ZZC  17 c11
M  ZZC  18 c12
M  ZZC  19 c13
M  ZZC  20 c14
M  ZZC  21 c15
M  ZZC  22 c16
M  ZZC  23 c17
M  ZZC  24 c18
M  ZZC  25 c19
M  ZZC  26 n4
M  ZZC  27 c20
M  ZZC  28 s1
M  ZZC  29 c21
M  ZZC  30 c22
M  ZZC  31 c23
M  ZZC  32 c24
M  ZZC  33 o4
M  ZZC  34 c25
M  ZZC  35 h11
M  ZZC  36 h12
M  ZZC  37 h13
M  ZZC  38 h01
M  ZZC  39 h31
M  ZZC  40 h51
M  ZZC  41 h52
M  ZZC  42 h53
M  ZZC  43 h61
M  ZZC  44 h62
M  ZZC  45 h63
M  ZZC  46 h71
M  ZZC  47 h72
M  ZZC  48 h73
M  ZZC  49 h91
M  ZZC  50 h02
M  ZZC  51 h111
M  ZZC  52 h121
M  ZZC  53 h122
M  ZZC  54 h123
M  ZZC  55 h141
M  ZZC  56 h151
M  ZZC  57 h191
M  ZZC  58 h192
M  ZZC  59 h193
M  ZZC  60 h201
M  ZZC  61 h211
M  ZZC  62 h221
M  ZZC  63 h231
M  ZZC  64 h232
M  ZZC  65 h241
M  ZZC  66 h41
M  ZZC  67 h251
M  ZZC  68 h252
M  ZZM   1 1
M  ZZI   1 111
M  ZZM   2 3
M  ZZI   2 121
M  ZZM   3 7
M  ZZI   3 81
M  ZZM   4 10
M  ZZI   4 211
M  ZZM   5 1
M  ZZI   5 113
M  ZZM   6 1
M  ZZI   6 110
M  ZZM   7 1
M  ZZI   7 111
M  ZZM   8 1
M  ZZI   8 111
M  ZZM   9 1
M  ZZI   9 111
M  ZZM  10 3
M  ZZI  10 121
M  ZZM  11 7
M  ZZI  11 81
M  ZZM  12 10
M  ZZI  12 192
M  ZZM  13 1
M  ZZI  13 113
M  ZZM  14 3
M  ZZI  14 121
M  ZZM  15 7
M  ZZI  15 81
M  ZZM  16 10
M  ZZI  16 211
M  ZZM  17 1
M  ZZI  17 113
M  ZZM  18 1
M  ZZI  18 111
M  ZZM  19 37
M  ZZI  19 124
M  ZZM  20 37
M  ZZI  20 125
M  ZZM  21 37
M  ZZI  21 125
M  ZZM  22 37
M  ZZI  22 124
M  ZZM  23 63
M  ZZI  23 104
M  ZZM  24 64
M  ZZI  24 105
M  ZZM  25 1
M  ZZI  25 111
M  ZZM  26 66
M  ZZI  26 222
M  ZZM  27 63
M  ZZI  27 104
M  ZZM  28 44
M  ZZI  28 248
M  ZZM  29 37
M  ZZI  29 125
M  ZZM  30 37
M  ZZI  30 125
M  ZZM  31 1
M  ZZI  31 112
M  ZZM  32 1
M  ZZI  32 113
M  ZZM  33 6
M  ZZI  33 60
M  ZZM  34 1
M  ZZI  34 112
M  ZZM  35 5
M  ZZI  35 1
M  ZZM  36 5
M  ZZI  36 1
M  ZZM  37 5
M  ZZI  37 1
M  ZZM  38 28
M  ZZI  38 11
M  ZZM  39 5
M  ZZI  39 1
M  ZZM  40 5
M  ZZI  40 1
M  ZZM  41 5
M  ZZI  41 1
M  ZZM  42 5
M  ZZI  42 1
M  ZZM  43 5
M  ZZI  43 1
M  ZZM  44 5
M  ZZI  44 1
M  ZZM  45 5
M  ZZI  45 1
M  ZZM  46 5
M  ZZI  46 1
M  ZZM  47 5
M  ZZI  47 1
M  ZZM  48 5
M  ZZI  48 1
M  ZZM  49 5
M  ZZI  49 1
M  ZZM  50 28
M  ZZI  50 11
M  ZZM  51 5
M  ZZI  51 1
M  ZZM  52 5
M  ZZI  52 1
M  ZZM  53 5
M  ZZI  53 1
M  ZZM  54 5
M  ZZI  54 1
M  ZZM  55 5
M  ZZI  55 1
M  ZZM  56 5
M  ZZI  56 1
M  ZZM  57 5
M  ZZI  57 1
M  ZZM  58 5
M  ZZI  58 1
M  ZZM  59 5
M  ZZI  59 1
M  ZZM  60 5
M  ZZI  60 1
M  ZZM  61 5
M  ZZI  61 1
M  ZZM  62 5
M  ZZI  62 1
M  ZZM  63 5
M  ZZI  63 1
M  ZZM  64 5
M  ZZI  64 1
M  ZZM  65 5
M  ZZI  65 1
M  ZZM  66 21
M  ZZI  66 20
M  ZZM  67 5
M  ZZI  67 1
M  ZZM  68 5
M  ZZI  68 1
M  END
> <IX>
1

> <NAME>
VHL_5EHR_15.pdb

> <Score>
-14.152548

> <Natom>
68

> <Nflex>
8

> <Hbond>
-4.16466

> <Hphob>
-6.385114

> <VwInt>
-27.729261

> <Dsolv>
15.892266

> <SolEl>
12.535534

> <Eintl>
5.66446

> <RecConf>
ND

> <projPath>
VHL_maps/

> <NAME_>
VHL_5EHR_15.pdb

$$$$
