VHL_5G0I_6.pdb
  MOLSOFT 04032206393D

 65 67  0  0  1  0  0  0  0  0999 V2000
   18.4249   -7.0424   -5.3912 C   0  0  0  0  0  0  0  0  0  0  0  0
   17.2421   -6.1149   -5.3467 C   0  0  0  0  0  0  0  0  0  0  0  0
   16.1457   -6.4792   -5.7414 O   0  0  0  0  0  0  0  0  0  0  0  0
   17.5286   -4.8731   -4.8124 N   0  0  0  0  0  0  0  0  0  0  0  0
   16.5496   -3.7879   -4.7052 C   0  0  1  0  0  0  0  0  0  0  0  0
   15.8978   -3.6755   -3.2865 C   0  0  0  0  0  0  0  0  0  0  0  0
   15.4574   -5.0528   -2.7693 C   0  0  0  0  0  0  0  0  0  0  0  0
   16.8607   -3.0751   -2.2497 C   0  0  0  0  0  0  0  0  0  0  0  0
   14.6402   -2.7938   -3.3426 C   0  0  0  0  0  0  0  0  0  0  0  0
   17.2497   -2.4885   -5.1431 C   0  0  0  0  0  0  0  0  0  0  0  0
   18.3959   -2.2398   -4.7980 O   0  0  0  0  0  0  0  0  0  0  0  0
   16.5132   -1.5531   -5.8704 N   0  0  0  0  0  0  0  0  0  0  0  0
   17.0474   -0.2202   -6.1160 C   0  0  2  0  0  0  0  0  0  0  0  0
   17.1020    0.6408   -4.8576 C   0  0  0  0  0  0  0  0  0  0  0  0
   16.3384    0.5004   -3.9118 O   0  0  0  0  0  0  0  0  0  0  0  0
   18.0240    1.6646   -4.9600 N   0  0  0  0  0  0  0  0  0  0  0  0
   17.9940    2.8047   -4.0707 C   0  0  0  0  0  0  0  0  0  0  0  0
   17.0761    3.8480   -4.6505 C   0  0  0  0  0  0  0  0  0  0  0  0
   17.5379    4.7288   -5.6214 C   0  0  0  0  0  0  0  0  0  0  0  0
   16.6652    5.5832   -6.2698 C   0  0  0  0  0  0  0  0  0  0  0  0
   15.3051    5.5778   -5.9701 C   0  0  0  0  0  0  0  0  0  0  0  0
   14.3732    6.4142   -6.7155 C   0  0  0  0  0  0  0  0  0  0  0  0
   13.3613    7.2693   -6.2924 C   0  0  0  0  0  0  0  0  0  0  0  0
   12.9569    7.5700   -4.8988 C   0  0  0  0  0  0  0  0  0  0  0  0
   12.6707    7.8989   -7.3078 N   0  0  0  0  0  0  0  0  0  0  0  0
   13.1275    7.4902   -8.4687 C   0  0  0  0  0  0  0  0  0  0  0  0
   14.4141    6.3800   -8.4360 S   0  0  0  0  0  0  0  0  0  0  0  0
   14.8507    4.7229   -4.9711 C   0  0  0  0  0  0  0  0  0  0  0  0
   15.7242    3.8686   -4.3213 C   0  0  0  0  0  0  0  0  0  0  0  0
   16.0857    0.4289   -7.1078 C   0  0  0  0  0  0  0  0  0  0  0  0
   15.4271   -0.7462   -7.7998 C   0  0  1  0  0  0  0  0  0  0  0  0
   16.2202   -1.1711   -8.9172 O   0  0  0  0  0  0  0  0  0  0  0  0
   15.3749   -1.8238   -6.7248 C   0  0  0  0  0  0  0  0  0  0  0  0
   19.3654   -6.5075   -5.2323 H   0  0  0  0  0  0  0  0  0  0  0  0
   18.4656   -7.5226   -6.3722 H   0  0  0  0  0  0  0  0  0  0  0  0
   18.3060   -7.8051   -4.6183 H   0  0  0  0  0  0  0  0  0  0  0  0
   18.4724   -4.6908   -4.4925 H   0  0  0  0  0  0  0  0  0  0  0  0
   15.7826   -4.0200   -5.4313 H   0  0  0  0  0  0  0  0  0  0  0  0
   14.9565   -4.9775   -1.7990 H   0  0  0  0  0  0  0  0  0  0  0  0
   16.3022   -5.7336   -2.6363 H   0  0  0  0  0  0  0  0  0  0  0  0
   14.7523   -5.5224   -3.4557 H   0  0  0  0  0  0  0  0  0  0  0  0
   16.4274   -3.0949   -1.2444 H   0  0  0  0  0  0  0  0  0  0  0  0
   17.1025   -2.0307   -2.4677 H   0  0  0  0  0  0  0  0  0  0  0  0
   17.8004   -3.6287   -2.2070 H   0  0  0  0  0  0  0  0  0  0  0  0
   14.8718   -1.7626   -3.6180 H   0  0  0  0  0  0  0  0  0  0  0  0
   14.1350   -2.7542   -2.3722 H   0  0  0  0  0  0  0  0  0  0  0  0
   13.9156   -3.1767   -4.0678 H   0  0  0  0  0  0  0  0  0  0  0  0
   18.0518   -0.3187   -6.5326 H   0  0  0  0  0  0  0  0  0  0  0  0
   18.6541    1.7003   -5.7539 H   0  0  0  0  0  0  0  0  0  0  0  0
   17.6603    2.4974   -3.0735 H   0  0  0  0  0  0  0  0  0  0  0  0
   19.0153    3.1888   -3.9773 H   0  0  0  0  0  0  0  0  0  0  0  0
   18.5859    4.7304   -5.9068 H   0  0  0  0  0  0  0  0  0  0  0  0
   17.0617    6.2460   -7.0337 H   0  0  0  0  0  0  0  0  0  0  0  0
   12.3318    6.7684   -4.4953 H   0  0  0  0  0  0  0  0  0  0  0  0
   12.3745    8.4931   -4.8538 H   0  0  0  0  0  0  0  0  0  0  0  0
   13.8271    7.6979   -4.2488 H   0  0  0  0  0  0  0  0  0  0  0  0
   12.7186    7.8284   -9.4049 H   0  0  0  0  0  0  0  0  0  0  0  0
   13.7950    4.6803   -4.7193 H   0  0  0  0  0  0  0  0  0  0  0  0
   15.3307    3.1791   -3.5793 H   0  0  0  0  0  0  0  0  0  0  0  0
   15.3262    1.0227   -6.5858 H   0  0  0  0  0  0  0  0  0  0  0  0
   16.6114    1.0928   -7.8023 H   0  0  0  0  0  0  0  0  0  0  0  0
   14.4321   -0.4949   -8.1700 H   0  0  0  0  0  0  0  0  0  0  0  0
   17.1570   -1.0888   -8.6594 H   0  0  0  0  0  0  0  0  0  0  0  0
   15.4434   -2.8287   -7.1479 H   0  0  0  0  0  0  0  0  0  0  0  0
   14.4721   -1.7305   -6.1134 H   0  0  0  0  0  0  0  0  0  0  0  0
  1 34  1  0  0  0  0
  1 35  1  0  0  0  0
  1 36  1  0  0  0  0
  1  2  1  0  0  0  0
  2  3  2  0  0  0  0
  2  4  1  0  0  0  0
  4 37  1  0  0  0  0
  5  4  1  0  0  0  0
  5 38  1  0  0  0  0
  5  6  1  0  0  0  0
  5 10  1  0  0  0  0
  6  7  1  0  0  0  0
  6  8  1  0  0  0  0
  6  9  1  0  0  0  0
  7 39  1  0  0  0  0
  7 40  1  0  0  0  0
  7 41  1  0  0  0  0
  8 42  1  0  0  0  0
  8 43  1  0  0  0  0
  8 44  1  0  0  0  0
  9 45  1  0  0  0  0
  9 46  1  0  0  0  0
  9 47  1  0  0  0  0
 10 11  2  0  0  0  0
 10 12  1  0  0  0  0
 12 33  1  0  0  0  0
 13 12  1  0  0  0  0
 13 30  1  0  0  0  0
 13 48  1  0  0  0  0
 13 14  1  0  0  0  0
 14 15  2  0  0  0  0
 14 16  1  0  0  0  0
 16 49  1  0  0  0  0
 16 17  1  0  0  0  0
 17 50  1  0  0  0  0
 17 51  1  0  0  0  0
 17 18  1  0  0  0  0
 18 19  1  0  0  0  0
 18 29  2  0  0  0  0
 19 52  1  0  0  0  0
 19 20  2  0  0  0  0
 20 53  1  0  0  0  0
 20 21  1  0  0  0  0
 21 28  2  0  0  0  0
 21 22  1  0  0  0  0
 22 23  2  0  0  0  0
 22 27  1  0  0  0  0
 23 24  1  0  0  0  0
 23 25  1  0  0  0  0
 24 54  1  0  0  0  0
 24 55  1  0  0  0  0
 24 56  1  0  0  0  0
 25 26  2  0  0  0  0
 26 57  1  0  0  0  0
 26 27  1  0  0  0  0
 28 58  1  0  0  0  0
 28 29  1  0  0  0  0
 29 59  1  0  0  0  0
 31 30  1  0  0  0  0
 30 60  1  0  0  0  0
 30 61  1  0  0  0  0
 31 33  1  0  0  0  0
 31 62  1  0  0  0  0
 31 32  1  0  0  0  0
 32 63  1  0  0  0  0
 33 64  1  0  0  0  0
 33 65  1  0  0  0  0
M  ZZC   1 c1
M  ZZC   2 c2
M  ZZC   3 o1
M  ZZC   4 n1
M  ZZC   5 c3
M  ZZC   6 c4
M  ZZC   7 c5
M  ZZC   8 c6
M  ZZC   9 c7
M  ZZC  10 c8
M  ZZC  11 o2
M  ZZC  12 n2
M  ZZC  13 c9
M  ZZC  14 c10
M  ZZC  15 o3
M  ZZC  16 n3
M  ZZC  17 c11
M  ZZC  18 c12
M  ZZC  19 c13
M  ZZC  20 c14
M  ZZC  21 c15
M  ZZC  22 c16
M  ZZC  23 c17
M  ZZC  24 c18
M  ZZC  25 n4
M  ZZC  26 c19
M  ZZC  27 s1
M  ZZC  28 c20
M  ZZC  29 c21
M  ZZC  30 c22
M  ZZC  31 c23
M  ZZC  32 o4
M  ZZC  33 c24
M  ZZC  34 h11
M  ZZC  35 h12
M  ZZC  36 h13
M  ZZC  37 h01
M  ZZC  38 h31
M  ZZC  39 h51
M  ZZC  40 h52
M  ZZC  41 h53
M  ZZC  42 h61
M  ZZC  43 h62
M  ZZC  44 h63
M  ZZC  45 h71
M  ZZC  46 h72
M  ZZC  47 h73
M  ZZC  48 h91
M  ZZC  49 h02
M  ZZC  50 h111
M  ZZC  51 h112
M  ZZC  52 h131
M  ZZC  53 h141
M  ZZC  54 h181
M  ZZC  55 h182
M  ZZC  56 h183
M  ZZC  57 h191
M  ZZC  58 h201
M  ZZC  59 h211
M  ZZC  60 h221
M  ZZC  61 h222
M  ZZC  62 h231
M  ZZC  63 h41
M  ZZC  64 h241
M  ZZC  65 h242
M  ZZM   1 1
M  ZZI   1 111
M  ZZM   2 3
M  ZZI   2 121
M  ZZM   3 7
M  ZZI   3 81
M  ZZM   4 10
M  ZZI   4 211
M  ZZM   5 1
M  ZZI   5 113
M  ZZM   6 1
M  ZZI   6 110
M  ZZM   7 1
M  ZZI   7 111
M  ZZM   8 1
M  ZZI   8 111
M  ZZM   9 1
M  ZZI   9 111
M  ZZM  10 3
M  ZZI  10 121
M  ZZM  11 7
M  ZZI  11 81
M  ZZM  12 10
M  ZZI  12 192
M  ZZM  13 1
M  ZZI  13 113
M  ZZM  14 3
M  ZZI  14 121
M  ZZM  15 7
M  ZZI  15 81
M  ZZM  16 10
M  ZZI  16 211
M  ZZM  17 1
M  ZZI  17 112
M  ZZM  18 37
M  ZZI  18 124
M  ZZM  19 37
M  ZZI  19 125
M  ZZM  20 37
M  ZZI  20 125
M  ZZM  21 37
M  ZZI  21 124
M  ZZM  22 63
M  ZZI  22 104
M  ZZM  23 64
M  ZZI  23 105
M  ZZM  24 1
M  ZZI  24 111
M  ZZM  25 66
M  ZZI  25 222
M  ZZM  26 63
M  ZZI  26 104
M  ZZM  27 44
M  ZZI  27 248
M  ZZM  28 37
M  ZZI  28 125
M  ZZM  29 37
M  ZZI  29 125
M  ZZM  30 1
M  ZZI  30 112
M  ZZM  31 1
M  ZZI  31 113
M  ZZM  32 6
M  ZZI  32 60
M  ZZM  33 1
M  ZZI  33 112
M  ZZM  34 5
M  ZZI  34 1
M  ZZM  35 5
M  ZZI  35 1
M  ZZM  36 5
M  ZZI  36 1
M  ZZM  37 28
M  ZZI  37 11
M  ZZM  38 5
M  ZZI  38 1
M  ZZM  39 5
M  ZZI  39 1
M  ZZM  40 5
M  ZZI  40 1
M  ZZM  41 5
M  ZZI  41 1
M  ZZM  42 5
M  ZZI  42 1
M  ZZM  43 5
M  ZZI  43 1
M  ZZM  44 5
M  ZZI  44 1
M  ZZM  45 5
M  ZZI  45 1
M  ZZM  46 5
M  ZZI  46 1
M  ZZM  47 5
M  ZZI  47 1
M  ZZM  48 5
M  ZZI  48 1
M  ZZM  49 28
M  ZZI  49 11
M  ZZM  50 5
M  ZZI  50 1
M  ZZM  51 5
M  ZZI  51 1
M  ZZM  52 5
M  ZZI  52 1
M  ZZM  53 5
M  ZZI  53 1
M  ZZM  54 5
M  ZZI  54 1
M  ZZM  55 5
M  ZZI  55 1
M  ZZM  56 5
M  ZZI  56 1
M  ZZM  57 5
M  ZZI  57 1
M  ZZM  58 5
M  ZZI  58 1
M  ZZM  59 5
M  ZZI  59 1
M  ZZM  60 5
M  ZZI  60 1
M  ZZM  61 5
M  ZZI  61 1
M  ZZM  62 5
M  ZZI  62 1
M  ZZM  63 21
M  ZZI  63 20
M  ZZM  64 5
M  ZZI  64 1
M  ZZM  65 5
M  ZZI  65 1
M  END
> <IX>
1

> <NAME>
VHL_5G0I_6.pdb

> <Score>
-24.893864

> <Natom>
65

> <Nflex>
8

> <Hbond>
-7.973065

> <Hphob>
-6.541687

> <VwInt>
-29.727944

> <Dsolv>
20.455099

> <SolEl>
9.221524

> <Eintl>
5.268893

> <RecConf>
ND

> <projPath>
VHL_maps/

> <NAME_>
VHL_5G0I_6.pdb

$$$$
