VHL_5LLI_4.pdb
  MOLSOFT 04032206413D

 66 68  0  0  1  0  0  0  0  0999 V2000
   16.1237   -6.3874   -5.6747 O   0  0  0  0  0  0  0  0  0  0  0  0
   17.2279   -6.0167   -5.3095 C   0  0  0  0  0  0  0  0  0  0  0  0
   17.5147   -4.7635   -4.7997 N   0  0  0  0  0  0  0  0  0  0  0  0
   16.5346   -3.6785   -4.6831 C   0  0  1  0  0  0  0  0  0  0  0  0
   15.9049   -3.5589   -3.2565 C   0  0  0  0  0  0  0  0  0  0  0  0
   16.8989   -2.9934   -2.2297 C   0  0  0  0  0  0  0  0  0  0  0  0
   15.4329   -4.9292   -2.7457 C   0  0  0  0  0  0  0  0  0  0  0  0
   14.6732   -2.6401   -3.2920 C   0  0  0  0  0  0  0  0  0  0  0  0
   17.2250   -2.3810   -5.1461 C   0  0  0  0  0  0  0  0  0  0  0  0
   18.3749   -2.1258   -4.8191 O   0  0  0  0  0  0  0  0  0  0  0  0
   16.4828   -1.4633   -5.8912 N   0  0  0  0  0  0  0  0  0  0  0  0
   17.0394   -0.1588   -6.2324 C   0  0  2  0  0  0  0  0  0  0  0  0
   17.2096    0.8032   -5.0643 C   0  0  0  0  0  0  0  0  0  0  0  0
   16.5669    0.7311   -4.0255 O   0  0  0  0  0  0  0  0  0  0  0  0
   18.0912    1.8222   -5.3701 N   0  0  0  0  0  0  0  0  0  0  0  0
   18.1990    3.0197   -4.5720 C   0  0  0  0  0  0  0  0  0  0  0  0
   17.2695    4.0771   -5.1088 C   0  0  0  0  0  0  0  0  0  0  0  0
   17.5502    4.7617   -6.2885 C   0  0  0  0  0  0  0  0  0  0  0  0
   18.7266    4.4764   -6.9609 O   0  0  0  0  0  0  0  0  0  0  0  0
   16.6836    5.7161   -6.8008 C   0  0  0  0  0  0  0  0  0  0  0  0
   15.5019    6.0107   -6.1298 C   0  0  0  0  0  0  0  0  0  0  0  0
   14.6166    7.0511   -6.6298 C   0  0  0  0  0  0  0  0  0  0  0  0
   13.9283    7.1667   -7.8308 C   0  0  0  0  0  0  0  0  0  0  0  0
   13.8803    6.1754   -8.9294 C   0  0  0  0  0  0  0  0  0  0  0  0
   13.2267    8.3451   -7.9877 N   0  0  0  0  0  0  0  0  0  0  0  0
   13.3823    9.0933   -6.9185 C   0  0  0  0  0  0  0  0  0  0  0  0
   14.3344    8.4445   -5.6646 S   0  0  0  0  0  0  0  0  0  0  0  0
   15.2010    5.3134   -4.9633 C   0  0  0  0  0  0  0  0  0  0  0  0
   16.0697    4.3582   -4.4620 C   0  0  0  0  0  0  0  0  0  0  0  0
   16.0504    0.4577   -7.2159 C   0  0  0  0  0  0  0  0  0  0  0  0
   15.3879   -0.7437   -7.8486 C   0  0  1  0  0  0  0  0  0  0  0  0
   16.1872   -1.2196   -8.9408 O   0  0  0  0  0  0  0  0  0  0  0  0
   15.3350   -1.7667   -6.7223 C   0  0  0  0  0  0  0  0  0  0  0  0
   18.4185   -6.9332   -5.3782 C   0  0  0  0  0  0  0  0  0  0  0  0
   18.4653   -4.5694   -4.5105 H   0  0  0  0  0  0  0  0  0  0  0  0
   15.7530   -3.9186   -5.3902 H   0  0  0  0  0  0  0  0  0  0  0  0
   17.8211   -3.5766   -2.1999 H   0  0  0  0  0  0  0  0  0  0  0  0
   16.4776   -3.0035   -1.2191 H   0  0  0  0  0  0  0  0  0  0  0  0
   17.1713   -1.9564   -2.4476 H   0  0  0  0  0  0  0  0  0  0  0  0
   16.2613   -5.6324   -2.6248 H   0  0  0  0  0  0  0  0  0  0  0  0
   14.7091   -5.3781   -3.4284 H   0  0  0  0  0  0  0  0  0  0  0  0
   14.9442   -4.8480   -1.7697 H   0  0  0  0  0  0  0  0  0  0  0  0
   14.1873   -2.5860   -2.3127 H   0  0  0  0  0  0  0  0  0  0  0  0
   13.9274   -2.9791   -4.0156 H   0  0  0  0  0  0  0  0  0  0  0  0
   14.9443   -1.6176   -3.5745 H   0  0  0  0  0  0  0  0  0  0  0  0
   18.0136   -0.3203   -6.6957 H   0  0  0  0  0  0  0  0  0  0  0  0
   18.6041    1.8052   -6.2459 H   0  0  0  0  0  0  0  0  0  0  0  0
   17.9683    2.7878   -3.5266 H   0  0  0  0  0  0  0  0  0  0  0  0
   19.2394    3.3596   -4.6074 H   0  0  0  0  0  0  0  0  0  0  0  0
   18.8162    5.1108   -7.6933 H   0  0  0  0  0  0  0  0  0  0  0  0
   16.9346    6.2469   -7.7144 H   0  0  0  0  0  0  0  0  0  0  0  0
   14.8461    6.1048   -9.4374 H   0  0  0  0  0  0  0  0  0  0  0  0
   13.1322    6.4543   -9.6775 H   0  0  0  0  0  0  0  0  0  0  0  0
   13.6317    5.1821   -8.5450 H   0  0  0  0  0  0  0  0  0  0  0  0
   12.9391   10.0713   -6.8206 H   0  0  0  0  0  0  0  0  0  0  0  0
   14.2751    5.5095   -4.4298 H   0  0  0  0  0  0  0  0  0  0  0  0
   15.7994    3.8261   -3.5538 H   0  0  0  0  0  0  0  0  0  0  0  0
   15.3006    1.0618   -6.6914 H   0  0  0  0  0  0  0  0  0  0  0  0
   16.5531    1.1008   -7.9462 H   0  0  0  0  0  0  0  0  0  0  0  0
   14.3945   -0.5061   -8.2292 H   0  0  0  0  0  0  0  0  0  0  0  0
   17.1214   -1.1564   -8.6681 H   0  0  0  0  0  0  0  0  0  0  0  0
   15.3923   -2.7895   -7.1022 H   0  0  0  0  0  0  0  0  0  0  0  0
   14.4379   -1.6377   -6.1086 H   0  0  0  0  0  0  0  0  0  0  0  0
   18.4501   -7.4048   -6.3640 H   0  0  0  0  0  0  0  0  0  0  0  0
   18.3176   -7.7043   -4.6106 H   0  0  0  0  0  0  0  0  0  0  0  0
   19.3564   -6.3914   -5.2274 H   0  0  0  0  0  0  0  0  0  0  0  0
  1  2  2  0  0  0  0
  2  3  1  0  0  0  0
  2 34  1  0  0  0  0
  4  3  1  0  0  0  0
  3 35  1  0  0  0  0
  4  5  1  0  0  0  0
  4 36  1  0  0  0  0
  4  9  1  0  0  0  0
  5  6  1  0  0  0  0
  5  7  1  0  0  0  0
  5  8  1  0  0  0  0
  6 37  1  0  0  0  0
  6 38  1  0  0  0  0
  6 39  1  0  0  0  0
  7 40  1  0  0  0  0
  7 41  1  0  0  0  0
  7 42  1  0  0  0  0
  8 43  1  0  0  0  0
  8 44  1  0  0  0  0
  8 45  1  0  0  0  0
  9 10  2  0  0  0  0
  9 11  1  0  0  0  0
 11 33  1  0  0  0  0
 12 11  1  0  0  0  0
 12 30  1  0  0  0  0
 12 46  1  0  0  0  0
 12 13  1  0  0  0  0
 13 14  2  0  0  0  0
 13 15  1  0  0  0  0
 15 47  1  0  0  0  0
 15 16  1  0  0  0  0
 16 48  1  0  0  0  0
 16 49  1  0  0  0  0
 16 17  1  0  0  0  0
 17 18  2  0  0  0  0
 17 29  1  0  0  0  0
 18 19  1  0  0  0  0
 18 20  1  0  0  0  0
 19 50  1  0  0  0  0
 20 51  1  0  0  0  0
 20 21  2  0  0  0  0
 21 28  1  0  0  0  0
 21 22  1  0  0  0  0
 22 23  2  0  0  0  0
 22 27  1  0  0  0  0
 23 24  1  0  0  0  0
 23 25  1  0  0  0  0
 24 52  1  0  0  0  0
 24 53  1  0  0  0  0
 24 54  1  0  0  0  0
 25 26  2  0  0  0  0
 26 55  1  0  0  0  0
 26 27  1  0  0  0  0
 28 56  1  0  0  0  0
 28 29  2  0  0  0  0
 29 57  1  0  0  0  0
 31 30  1  0  0  0  0
 30 58  1  0  0  0  0
 30 59  1  0  0  0  0
 31 33  1  0  0  0  0
 31 60  1  0  0  0  0
 31 32  1  0  0  0  0
 32 61  1  0  0  0  0
 33 62  1  0  0  0  0
 33 63  1  0  0  0  0
 34 64  1  0  0  0  0
 34 65  1  0  0  0  0
 34 66  1  0  0  0  0
M  ZZC   1 o1
M  ZZC   2 c1
M  ZZC   3 n1
M  ZZC   4 c2
M  ZZC   5 c3
M  ZZC   6 c4
M  ZZC   7 c5
M  ZZC   8 c6
M  ZZC   9 c7
M  ZZC  10 o2
M  ZZC  11 n2
M  ZZC  12 c8
M  ZZC  13 c9
M  ZZC  14 o3
M  ZZC  15 n3
M  ZZC  16 c10
M  ZZC  17 c11
M  ZZC  18 c12
M  ZZC  19 o4
M  ZZC  20 c13
M  ZZC  21 c14
M  ZZC  22 c15
M  ZZC  23 c16
M  ZZC  24 c17
M  ZZC  25 n4
M  ZZC  26 c18
M  ZZC  27 s1
M  ZZC  28 c19
M  ZZC  29 c20
M  ZZC  30 c21
M  ZZC  31 c22
M  ZZC  32 o5
M  ZZC  33 c23
M  ZZC  34 c24
M  ZZC  35 h11
M  ZZC  36 h21
M  ZZC  37 h41
M  ZZC  38 h42
M  ZZC  39 h43
M  ZZC  40 h51
M  ZZC  41 h52
M  ZZC  42 h53
M  ZZC  43 h61
M  ZZC  44 h62
M  ZZC  45 h63
M  ZZC  46 h81
M  ZZC  47 h31
M  ZZC  48 h101
M  ZZC  49 h102
M  ZZC  50 h01
M  ZZC  51 h131
M  ZZC  52 h171
M  ZZC  53 h172
M  ZZC  54 h173
M  ZZC  55 h181
M  ZZC  56 h191
M  ZZC  57 h201
M  ZZC  58 h211
M  ZZC  59 h212
M  ZZC  60 h221
M  ZZC  61 h02
M  ZZC  62 h231
M  ZZC  63 h232
M  ZZC  64 h241
M  ZZC  65 h242
M  ZZC  66 h243
M  ZZM   1 7
M  ZZI   1 81
M  ZZM   2 3
M  ZZI   2 121
M  ZZM   3 10
M  ZZI   3 211
M  ZZM   4 1
M  ZZI   4 113
M  ZZM   5 1
M  ZZI   5 110
M  ZZM   6 1
M  ZZI   6 111
M  ZZM   7 1
M  ZZI   7 111
M  ZZM   8 1
M  ZZI   8 111
M  ZZM   9 3
M  ZZI   9 121
M  ZZM  10 7
M  ZZI  10 81
M  ZZM  11 10
M  ZZI  11 192
M  ZZM  12 1
M  ZZI  12 113
M  ZZM  13 3
M  ZZI  13 121
M  ZZM  14 7
M  ZZI  14 81
M  ZZM  15 10
M  ZZI  15 211
M  ZZM  16 1
M  ZZI  16 112
M  ZZM  17 37
M  ZZI  17 124
M  ZZM  18 37
M  ZZI  18 124
M  ZZM  19 6
M  ZZI  19 62
M  ZZM  20 37
M  ZZI  20 125
M  ZZM  21 37
M  ZZI  21 124
M  ZZM  22 63
M  ZZI  22 104
M  ZZM  23 64
M  ZZI  23 105
M  ZZM  24 1
M  ZZI  24 111
M  ZZM  25 66
M  ZZI  25 222
M  ZZM  26 63
M  ZZI  26 104
M  ZZM  27 44
M  ZZI  27 248
M  ZZM  28 37
M  ZZI  28 125
M  ZZM  29 37
M  ZZI  29 125
M  ZZM  30 1
M  ZZI  30 112
M  ZZM  31 1
M  ZZI  31 113
M  ZZM  32 6
M  ZZI  32 60
M  ZZM  33 1
M  ZZI  33 112
M  ZZM  34 1
M  ZZI  34 111
M  ZZM  35 28
M  ZZI  35 11
M  ZZM  36 5
M  ZZI  36 1
M  ZZM  37 5
M  ZZI  37 1
M  ZZM  38 5
M  ZZI  38 1
M  ZZM  39 5
M  ZZI  39 1
M  ZZM  40 5
M  ZZI  40 1
M  ZZM  41 5
M  ZZI  41 1
M  ZZM  42 5
M  ZZI  42 1
M  ZZM  43 5
M  ZZI  43 1
M  ZZM  44 5
M  ZZI  44 1
M  ZZM  45 5
M  ZZI  45 1
M  ZZM  46 5
M  ZZI  46 1
M  ZZM  47 28
M  ZZI  47 11
M  ZZM  48 5
M  ZZI  48 1
M  ZZM  49 5
M  ZZI  49 1
M  ZZM  50 29
M  ZZI  50 27
M  ZZM  51 5
M  ZZI  51 1
M  ZZM  52 5
M  ZZI  52 1
M  ZZM  53 5
M  ZZI  53 1
M  ZZM  54 5
M  ZZI  54 1
M  ZZM  55 5
M  ZZI  55 1
M  ZZM  56 5
M  ZZI  56 1
M  ZZM  57 5
M  ZZI  57 1
M  ZZM  58 5
M  ZZI  58 1
M  ZZM  59 5
M  ZZI  59 1
M  ZZM  60 5
M  ZZI  60 1
M  ZZM  61 21
M  ZZI  61 20
M  ZZM  62 5
M  ZZI  62 1
M  ZZM  63 5
M  ZZI  63 1
M  ZZM  64 5
M  ZZI  64 1
M  ZZM  65 5
M  ZZI  65 1
M  ZZM  66 5
M  ZZI  66 1
M  END
> <IX>
1

> <NAME>
VHL_5LLI_4.pdb

> <Score>
-23.800438

> <Natom>
66

> <Nflex>
8

> <Hbond>
-7.91272

> <Hphob>
-6.428109

> <VwInt>
-30.786319

> <Dsolv>
22.222754

> <SolEl>
10.726856

> <Eintl>
4.608508

> <RecConf>
ND

> <projPath>
VHL_maps/

> <NAME_>
VHL_5LLI_4.pdb

$$$$
