VHL_5L2I_10.pdb
  MOLSOFT 04032206413D

 68 70  0  0  1  0  0  0  0  0999 V2000
   15.3324   -5.1694   -3.4392 O   0  0  0  0  0  0  0  0  0  0  0  0
   16.4501   -4.9922   -3.8986 C   0  0  0  0  0  0  0  0  0  0  0  0
   17.0660   -3.7597   -3.9758 N   0  0  0  0  0  0  0  0  0  0  0  0
   16.3490   -2.5180   -3.6710 C   0  0  1  0  0  0  0  0  0  0  0  0
   16.6636   -1.9302   -2.2618 C   0  0  0  0  0  0  0  0  0  0  0  0
   18.1136   -1.4421   -2.1324 C   0  0  0  0  0  0  0  0  0  0  0  0
   16.4149   -2.9915   -1.1756 C   0  0  0  0  0  0  0  0  0  0  0  0
   15.7295   -0.7438   -1.9749 C   0  0  0  0  0  0  0  0  0  0  0  0
   16.6700   -1.5682   -4.8441 C   0  0  0  0  0  0  0  0  0  0  0  0
   17.8294   -1.3297   -5.1631 O   0  0  0  0  0  0  0  0  0  0  0  0
   15.5844   -1.0408   -5.5474 N   0  0  0  0  0  0  0  0  0  0  0  0
   15.7687   -0.2764   -6.7753 C   0  0  2  0  0  0  0  0  0  0  0  0
   16.1116    1.1823   -6.4586 C   0  0  0  0  0  0  0  0  0  0  0  0
   15.2993    1.9679   -5.9890 O   0  0  0  0  0  0  0  0  0  0  0  0
   17.4410    1.4908   -6.6789 N   0  0  0  0  0  0  0  0  0  0  0  0
   18.0286    2.7602   -6.2633 C   0  0  1  0  0  0  0  0  0  0  0  0
   18.1680    2.8054   -4.7387 C   0  0  0  0  0  0  0  0  0  0  0  0
   19.3854    3.0329   -6.8883 C   0  0  0  0  0  0  0  0  0  0  0  0
   19.7871    4.3383   -7.1746 C   0  0  0  0  0  0  0  0  0  0  0  0
   21.0697    4.6168   -7.6283 C   0  0  0  0  0  0  0  0  0  0  0  0
   21.9885    3.5923   -7.8132 C   0  0  0  0  0  0  0  0  0  0  0  0
   23.3579    3.8487   -8.2287 C   0  0  0  0  0  0  0  0  0  0  0  0
   24.4653    4.2295   -7.4848 C   0  0  0  0  0  0  0  0  0  0  0  0
   24.5032    4.5176   -6.0330 C   0  0  0  0  0  0  0  0  0  0  0  0
   25.6445    4.3174   -8.1972 N   0  0  0  0  0  0  0  0  0  0  0  0
   25.4217    4.0228   -9.4583 C   0  0  0  0  0  0  0  0  0  0  0  0
   23.8118    3.6357   -9.8712 S   0  0  0  0  0  0  0  0  0  0  0  0
   21.5834    2.2944   -7.5543 C   0  0  0  0  0  0  0  0  0  0  0  0
   20.3102    2.0172   -7.1054 C   0  0  0  0  0  0  0  0  0  0  0  0
   14.4309   -0.3996   -7.4813 C   0  0  0  0  0  0  0  0  0  0  0  0
   13.4126   -0.5356   -6.3608 C   0  0  1  0  0  0  0  0  0  0  0  0
   12.2796   -1.2934   -6.7858 O   0  0  0  0  0  0  0  0  0  0  0  0
   14.1763   -1.2892   -5.2854 C   0  0  0  0  0  0  0  0  0  0  0  0
   17.2751   -6.1273   -4.4469 C   0  0  0  0  0  0  0  0  0  0  0  0
   18.0172   -3.7002   -4.3279 H   0  0  0  0  0  0  0  0  0  0  0  0
   15.2868   -2.7706   -3.6886 H   0  0  0  0  0  0  0  0  0  0  0  0
   18.8213   -2.2304   -2.3922 H   0  0  0  0  0  0  0  0  0  0  0  0
   18.3401   -1.1308   -1.1077 H   0  0  0  0  0  0  0  0  0  0  0  0
   18.3175   -0.5802   -2.7743 H   0  0  0  0  0  0  0  0  0  0  0  0
   15.3959   -3.3892   -1.2281 H   0  0  0  0  0  0  0  0  0  0  0  0
   16.5466   -2.5756   -0.1715 H   0  0  0  0  0  0  0  0  0  0  0  0
   17.1071   -3.8346   -1.2613 H   0  0  0  0  0  0  0  0  0  0  0  0
   14.6777   -1.0469   -2.0017 H   0  0  0  0  0  0  0  0  0  0  0  0
   15.8626    0.0645   -2.7007 H   0  0  0  0  0  0  0  0  0  0  0  0
   15.9163   -0.3188   -0.9832 H   0  0  0  0  0  0  0  0  0  0  0  0
   16.5674   -0.7223   -7.3789 H   0  0  0  0  0  0  0  0  0  0  0  0
   18.0368    0.7690   -7.0718 H   0  0  0  0  0  0  0  0  0  0  0  0
   17.3284    3.5432   -6.5769 H   0  0  0  0  0  0  0  0  0  0  0  0
   18.5934    3.7551   -4.4011 H   0  0  0  0  0  0  0  0  0  0  0  0
   18.8170    2.0041   -4.3713 H   0  0  0  0  0  0  0  0  0  0  0  0
   17.1963    2.6961   -4.2446 H   0  0  0  0  0  0  0  0  0  0  0  0
   19.1001    5.1646   -7.0172 H   0  0  0  0  0  0  0  0  0  0  0  0
   21.3527    5.6468   -7.8243 H   0  0  0  0  0  0  0  0  0  0  0  0
   23.9568    5.4379   -5.8081 H   0  0  0  0  0  0  0  0  0  0  0  0
   25.5322    4.6403   -5.6824 H   0  0  0  0  0  0  0  0  0  0  0  0
   24.0540    3.7022   -5.4605 H   0  0  0  0  0  0  0  0  0  0  0  0
   26.2070    4.0250  -10.2005 H   0  0  0  0  0  0  0  0  0  0  0  0
   22.2723    1.4708   -7.6908 H   0  0  0  0  0  0  0  0  0  0  0  0
   20.0588    0.9838   -6.9033 H   0  0  0  0  0  0  0  0  0  0  0  0
   14.2048    0.4393   -8.1481 H   0  0  0  0  0  0  0  0  0  0  0  0
   14.4367   -1.3119   -8.0855 H   0  0  0  0  0  0  0  0  0  0  0  0
   13.0760    0.4406   -5.9948 H   0  0  0  0  0  0  0  0  0  0  0  0
   11.8137   -0.7859   -7.4757 H   0  0  0  0  0  0  0  0  0  0  0  0
   13.9820   -2.3660   -5.3286 H   0  0  0  0  0  0  0  0  0  0  0  0
   13.9128   -0.9383   -4.2839 H   0  0  0  0  0  0  0  0  0  0  0  0
   16.7410   -6.6770   -5.2276 H   0  0  0  0  0  0  0  0  0  0  0  0
   17.5101   -6.8224   -3.6348 H   0  0  0  0  0  0  0  0  0  0  0  0
   18.2036   -5.7319   -4.8658 H   0  0  0  0  0  0  0  0  0  0  0  0
  1  2  2  0  0  0  0
  2  3  1  0  0  0  0
  2 34  1  0  0  0  0
  4  3  1  0  0  0  0
  3 35  1  0  0  0  0
  4  5  1  0  0  0  0
  4 36  1  0  0  0  0
  4  9  1  0  0  0  0
  5  6  1  0  0  0  0
  5  7  1  0  0  0  0
  5  8  1  0  0  0  0
  6 37  1  0  0  0  0
  6 38  1  0  0  0  0
  6 39  1  0  0  0  0
  7 40  1  0  0  0  0
  7 41  1  0  0  0  0
  7 42  1  0  0  0  0
  8 43  1  0  0  0  0
  8 44  1  0  0  0  0
  8 45  1  0  0  0  0
  9 10  2  0  0  0  0
  9 11  1  0  0  0  0
 11 33  1  0  0  0  0
 12 11  1  0  0  0  0
 12 30  1  0  0  0  0
 12 46  1  0  0  0  0
 12 13  1  0  0  0  0
 13 14  2  0  0  0  0
 13 15  1  0  0  0  0
 15 47  1  0  0  0  0
 16 15  1  0  0  0  0
 16 48  1  0  0  0  0
 16 17  1  0  0  0  0
 16 18  1  0  0  0  0
 17 49  1  0  0  0  0
 17 50  1  0  0  0  0
 17 51  1  0  0  0  0
 18 19  1  0  0  0  0
 18 29  2  0  0  0  0
 19 52  1  0  0  0  0
 19 20  2  0  0  0  0
 20 53  1  0  0  0  0
 20 21  1  0  0  0  0
 21 28  2  0  0  0  0
 21 22  1  0  0  0  0
 22 23  2  0  0  0  0
 22 27  1  0  0  0  0
 23 24  1  0  0  0  0
 23 25  1  0  0  0  0
 24 54  1  0  0  0  0
 24 55  1  0  0  0  0
 24 56  1  0  0  0  0
 25 26  2  0  0  0  0
 26 57  1  0  0  0  0
 26 27  1  0  0  0  0
 28 58  1  0  0  0  0
 28 29  1  0  0  0  0
 29 59  1  0  0  0  0
 31 30  1  0  0  0  0
 30 60  1  0  0  0  0
 30 61  1  0  0  0  0
 31 33  1  0  0  0  0
 31 62  1  0  0  0  0
 31 32  1  0  0  0  0
 32 63  1  0  0  0  0
 33 64  1  0  0  0  0
 33 65  1  0  0  0  0
 34 66  1  0  0  0  0
 34 67  1  0  0  0  0
 34 68  1  0  0  0  0
M  ZZC   1 o1
M  ZZC   2 c1
M  ZZC   3 n1
M  ZZC   4 c2
M  ZZC   5 c3
M  ZZC   6 c4
M  ZZC   7 c5
M  ZZC   8 c6
M  ZZC   9 c7
M  ZZC  10 o2
M  ZZC  11 n2
M  ZZC  12 c8
M  ZZC  13 c9
M  ZZC  14 o3
M  ZZC  15 n3
M  ZZC  16 c10
M  ZZC  17 c11
M  ZZC  18 c12
M  ZZC  19 c13
M  ZZC  20 c14
M  ZZC  21 c15
M  ZZC  22 c16
M  ZZC  23 c17
M  ZZC  24 c18
M  ZZC  25 n4
M  ZZC  26 c19
M  ZZC  27 s1
M  ZZC  28 c20
M  ZZC  29 c21
M  ZZC  30 c22
M  ZZC  31 c23
M  ZZC  32 o4
M  ZZC  33 c24
M  ZZC  34 c25
M  ZZC  35 h11
M  ZZC  36 h21
M  ZZC  37 h41
M  ZZC  38 h42
M  ZZC  39 h43
M  ZZC  40 h51
M  ZZC  41 h52
M  ZZC  42 h53
M  ZZC  43 h61
M  ZZC  44 h62
M  ZZC  45 h63
M  ZZC  46 h81
M  ZZC  47 h31
M  ZZC  48 h101
M  ZZC  49 h111
M  ZZC  50 h112
M  ZZC  51 h113
M  ZZC  52 h131
M  ZZC  53 h141
M  ZZC  54 h181
M  ZZC  55 h182
M  ZZC  56 h183
M  ZZC  57 h191
M  ZZC  58 h201
M  ZZC  59 h211
M  ZZC  60 h221
M  ZZC  61 h222
M  ZZC  62 h231
M  ZZC  63 h01
M  ZZC  64 h241
M  ZZC  65 h242
M  ZZC  66 h251
M  ZZC  67 h252
M  ZZC  68 h253
M  ZZM   1 7
M  ZZI   1 81
M  ZZM   2 3
M  ZZI   2 121
M  ZZM   3 10
M  ZZI   3 211
M  ZZM   4 1
M  ZZI   4 113
M  ZZM   5 1
M  ZZI   5 110
M  ZZM   6 1
M  ZZI   6 111
M  ZZM   7 1
M  ZZI   7 111
M  ZZM   8 1
M  ZZI   8 111
M  ZZM   9 3
M  ZZI   9 121
M  ZZM  10 7
M  ZZI  10 81
M  ZZM  11 10
M  ZZI  11 192
M  ZZM  12 1
M  ZZI  12 113
M  ZZM  13 3
M  ZZI  13 121
M  ZZM  14 7
M  ZZI  14 81
M  ZZM  15 10
M  ZZI  15 211
M  ZZM  16 1
M  ZZI  16 113
M  ZZM  17 1
M  ZZI  17 111
M  ZZM  18 37
M  ZZI  18 124
M  ZZM  19 37
M  ZZI  19 125
M  ZZM  20 37
M  ZZI  20 125
M  ZZM  21 37
M  ZZI  21 124
M  ZZM  22 63
M  ZZI  22 104
M  ZZM  23 64
M  ZZI  23 105
M  ZZM  24 1
M  ZZI  24 111
M  ZZM  25 66
M  ZZI  25 222
M  ZZM  26 63
M  ZZI  26 104
M  ZZM  27 44
M  ZZI  27 248
M  ZZM  28 37
M  ZZI  28 125
M  ZZM  29 37
M  ZZI  29 125
M  ZZM  30 1
M  ZZI  30 112
M  ZZM  31 1
M  ZZI  31 113
M  ZZM  32 6
M  ZZI  32 60
M  ZZM  33 1
M  ZZI  33 112
M  ZZM  34 1
M  ZZI  34 111
M  ZZM  35 28
M  ZZI  35 11
M  ZZM  36 5
M  ZZI  36 1
M  ZZM  37 5
M  ZZI  37 1
M  ZZM  38 5
M  ZZI  38 1
M  ZZM  39 5
M  ZZI  39 1
M  ZZM  40 5
M  ZZI  40 1
M  ZZM  41 5
M  ZZI  41 1
M  ZZM  42 5
M  ZZI  42 1
M  ZZM  43 5
M  ZZI  43 1
M  ZZM  44 5
M  ZZI  44 1
M  ZZM  45 5
M  ZZI  45 1
M  ZZM  46 5
M  ZZI  46 1
M  ZZM  47 28
M  ZZI  47 11
M  ZZM  48 5
M  ZZI  48 1
M  ZZM  49 5
M  ZZI  49 1
M  ZZM  50 5
M  ZZI  50 1
M  ZZM  51 5
M  ZZI  51 1
M  ZZM  52 5
M  ZZI  52 1
M  ZZM  53 5
M  ZZI  53 1
M  ZZM  54 5
M  ZZI  54 1
M  ZZM  55 5
M  ZZI  55 1
M  ZZM  56 5
M  ZZI  56 1
M  ZZM  57 5
M  ZZI  57 1
M  ZZM  58 5
M  ZZI  58 1
M  ZZM  59 5
M  ZZI  59 1
M  ZZM  60 5
M  ZZI  60 1
M  ZZM  61 5
M  ZZI  61 1
M  ZZM  62 5
M  ZZI  62 1
M  ZZM  63 21
M  ZZI  63 20
M  ZZM  64 5
M  ZZI  64 1
M  ZZM  65 5
M  ZZI  65 1
M  ZZM  66 5
M  ZZI  66 1
M  ZZM  67 5
M  ZZI  67 1
M  ZZM  68 5
M  ZZI  68 1
M  END
> <IX>
1

> <NAME>
VHL_5L2I_10.pdb

> <Score>
-17.642294

> <Natom>
68

> <Nflex>
8

> <Hbond>
-6.541359

> <Hphob>
-6.251777

> <VwInt>
-31.985902

> <Dsolv>
18.220337

> <SolEl>
20.412649

> <Eintl>
5.240558

> <RecConf>
ND

> <projPath>
VHL_maps/

> <NAME_>
VHL_5L2I_10.pdb

$$$$
