VHL_5EHR_5.pdb
  MOLSOFT 04032206403D

 68 70  0  0  1  0  0  0  0  0999 V2000
   13.7695    4.4280   -1.4005 C   0  0  0  0  0  0  0  0  0  0  0  0
   13.3665    3.0207   -1.7476 C   0  0  0  0  0  0  0  0  0  0  0  0
   12.2555    2.5725   -1.4998 O   0  0  0  0  0  0  0  0  0  0  0  0
   14.3961    2.3137   -2.3305 N   0  0  0  0  0  0  0  0  0  0  0  0
   14.2472    0.9643   -2.8711 C   0  0  2  0  0  0  0  0  0  0  0  0
   14.6540   -0.1588   -1.8594 C   0  0  0  0  0  0  0  0  0  0  0  0
   13.7509   -0.1162   -0.6140 C   0  0  0  0  0  0  0  0  0  0  0  0
   14.4839   -1.5508   -2.4900 C   0  0  0  0  0  0  0  0  0  0  0  0
   16.1130   -0.0203   -1.3901 C   0  0  0  0  0  0  0  0  0  0  0  0
   15.1134    0.9935   -4.1479 C   0  0  0  0  0  0  0  0  0  0  0  0
   16.2536    1.4394   -4.1292 O   0  0  0  0  0  0  0  0  0  0  0  0
   14.5451    0.5070   -5.3233 N   0  0  0  0  0  0  0  0  0  0  0  0
   15.3326    0.2932   -6.5370 C   0  0  2  0  0  0  0  0  0  0  0  0
   15.3534    1.4809   -7.5091 C   0  0  0  0  0  0  0  0  0  0  0  0
   15.9336    1.4231   -8.5838 O   0  0  0  0  0  0  0  0  0  0  0  0
   14.6425    2.5941   -7.1099 N   0  0  0  0  0  0  0  0  0  0  0  0
   14.5641    3.7915   -7.9336 C   0  0  1  0  0  0  0  0  0  0  0  0
   13.4927    3.5895   -9.0080 C   0  0  0  0  0  0  0  0  0  0  0  0
   14.3932    5.0323   -7.0749 C   0  0  0  0  0  0  0  0  0  0  0  0
   15.1129    5.1522   -5.8866 C   0  0  0  0  0  0  0  0  0  0  0  0
   14.9745    6.2559   -5.0658 C   0  0  0  0  0  0  0  0  0  0  0  0
   14.1209    7.2974   -5.4093 C   0  0  0  0  0  0  0  0  0  0  0  0
   13.9591    8.4584   -4.5423 C   0  0  0  0  0  0  0  0  0  0  0  0
   13.9780    9.8161   -4.8365 C   0  0  0  0  0  0  0  0  0  0  0  0
   14.2318   10.4401   -6.1563 C   0  0  0  0  0  0  0  0  0  0  0  0
   13.7201   10.6517   -3.7667 N   0  0  0  0  0  0  0  0  0  0  0  0
   13.6002    9.9390   -2.6690 C   0  0  0  0  0  0  0  0  0  0  0  0
   13.6857    8.2449   -2.8550 S   0  0  0  0  0  0  0  0  0  0  0  0
   13.4319    7.2058   -6.6134 C   0  0  0  0  0  0  0  0  0  0  0  0
   13.5734    6.1026   -7.4363 C   0  0  0  0  0  0  0  0  0  0  0  0
   14.6244   -0.8794   -7.1862 C   0  0  0  0  0  0  0  0  0  0  0  0
   13.1625   -0.5873   -6.8857 C   0  0  1  0  0  0  0  0  0  0  0  0
   12.4022   -1.7856   -6.8921 O   0  0  0  0  0  0  0  0  0  0  0  0
   13.1951    0.0052   -5.4900 C   0  0  0  0  0  0  0  0  0  0  0  0
   14.6137    4.7599   -2.0121 H   0  0  0  0  0  0  0  0  0  0  0  0
   14.0588    4.4766   -0.3470 H   0  0  0  0  0  0  0  0  0  0  0  0
   12.9330    5.1017   -1.5958 H   0  0  0  0  0  0  0  0  0  0  0  0
   15.3090    2.7527   -2.4173 H   0  0  0  0  0  0  0  0  0  0  0  0
   13.1923    0.8473   -3.1341 H   0  0  0  0  0  0  0  0  0  0  0  0
   13.8866    0.8036   -0.0376 H   0  0  0  0  0  0  0  0  0  0  0  0
   13.9650   -0.9475    0.0655 H   0  0  0  0  0  0  0  0  0  0  0  0
   12.6931   -0.1897   -0.8831 H   0  0  0  0  0  0  0  0  0  0  0  0
   13.4413   -1.7429   -2.7590 H   0  0  0  0  0  0  0  0  0  0  0  0
   14.7806   -2.3432   -1.7949 H   0  0  0  0  0  0  0  0  0  0  0  0
   15.0931   -1.6739   -3.3903 H   0  0  0  0  0  0  0  0  0  0  0  0
   16.8237   -0.1645   -2.2092 H   0  0  0  0  0  0  0  0  0  0  0  0
   16.3565   -0.7698   -0.6298 H   0  0  0  0  0  0  0  0  0  0  0  0
   16.3072    0.9606   -0.9457 H   0  0  0  0  0  0  0  0  0  0  0  0
   16.3710    0.0540   -6.2813 H   0  0  0  0  0  0  0  0  0  0  0  0
   14.1386    2.5685   -6.2301 H   0  0  0  0  0  0  0  0  0  0  0  0
   15.5257    3.8985   -8.4454 H   0  0  0  0  0  0  0  0  0  0  0  0
   13.4874    4.4089   -9.7304 H   0  0  0  0  0  0  0  0  0  0  0  0
   12.4939    3.5138   -8.5721 H   0  0  0  0  0  0  0  0  0  0  0  0
   13.6616    2.6696   -9.5744 H   0  0  0  0  0  0  0  0  0  0  0  0
   15.7996    4.3686   -5.5787 H   0  0  0  0  0  0  0  0  0  0  0  0
   15.5574    6.2956   -4.1506 H   0  0  0  0  0  0  0  0  0  0  0  0
   14.4155   11.5137   -6.0553 H   0  0  0  0  0  0  0  0  0  0  0  0
   13.3696   10.3076   -6.8128 H   0  0  0  0  0  0  0  0  0  0  0  0
   15.1073    9.9985   -6.6407 H   0  0  0  0  0  0  0  0  0  0  0  0
   13.4325   10.3915   -1.7019 H   0  0  0  0  0  0  0  0  0  0  0  0
   12.7522    7.9938   -6.9214 H   0  0  0  0  0  0  0  0  0  0  0  0
   13.0063    6.0898   -8.3605 H   0  0  0  0  0  0  0  0  0  0  0  0
   14.8265   -0.9798   -8.2563 H   0  0  0  0  0  0  0  0  0  0  0  0
   14.9281   -1.8235   -6.7182 H   0  0  0  0  0  0  0  0  0  0  0  0
   12.7433    0.1172   -7.6131 H   0  0  0  0  0  0  0  0  0  0  0  0
   11.4755   -1.5318   -7.0582 H   0  0  0  0  0  0  0  0  0  0  0  0
   12.9727   -0.7402   -4.7245 H   0  0  0  0  0  0  0  0  0  0  0  0
   12.4811    0.8266   -5.3844 H   0  0  0  0  0  0  0  0  0  0  0  0
  1 35  1  0  0  0  0
  1 36  1  0  0  0  0
  1 37  1  0  0  0  0
  1  2  1  0  0  0  0
  2  3  2  0  0  0  0
  2  4  1  0  0  0  0
  4 38  1  0  0  0  0
  5  4  1  0  0  0  0
  5 39  1  0  0  0  0
  5  6  1  0  0  0  0
  5 10  1  0  0  0  0
  6  7  1  0  0  0  0
  6  8  1  0  0  0  0
  6  9  1  0  0  0  0
  7 40  1  0  0  0  0
  7 41  1  0  0  0  0
  7 42  1  0  0  0  0
  8 43  1  0  0  0  0
  8 44  1  0  0  0  0
  8 45  1  0  0  0  0
  9 46  1  0  0  0  0
  9 47  1  0  0  0  0
  9 48  1  0  0  0  0
 10 11  2  0  0  0  0
 10 12  1  0  0  0  0
 12 34  1  0  0  0  0
 13 12  1  0  0  0  0
 13 31  1  0  0  0  0
 13 49  1  0  0  0  0
 13 14  1  0  0  0  0
 14 15  2  0  0  0  0
 14 16  1  0  0  0  0
 16 50  1  0  0  0  0
 17 16  1  0  0  0  0
 17 51  1  0  0  0  0
 17 18  1  0  0  0  0
 17 19  1  0  0  0  0
 18 52  1  0  0  0  0
 18 53  1  0  0  0  0
 18 54  1  0  0  0  0
 19 20  1  0  0  0  0
 19 30  2  0  0  0  0
 20 55  1  0  0  0  0
 20 21  2  0  0  0  0
 21 56  1  0  0  0  0
 21 22  1  0  0  0  0
 22 29  2  0  0  0  0
 22 23  1  0  0  0  0
 23 24  2  0  0  0  0
 23 28  1  0  0  0  0
 24 25  1  0  0  0  0
 24 26  1  0  0  0  0
 25 57  1  0  0  0  0
 25 58  1  0  0  0  0
 25 59  1  0  0  0  0
 26 27  2  0  0  0  0
 27 60  1  0  0  0  0
 27 28  1  0  0  0  0
 29 61  1  0  0  0  0
 29 30  1  0  0  0  0
 30 62  1  0  0  0  0
 32 31  1  0  0  0  0
 31 63  1  0  0  0  0
 31 64  1  0  0  0  0
 32 34  1  0  0  0  0
 32 65  1  0  0  0  0
 32 33  1  0  0  0  0
 33 66  1  0  0  0  0
 34 67  1  0  0  0  0
 34 68  1  0  0  0  0
M  ZZC   1 c1
M  ZZC   2 c2
M  ZZC   3 o1
M  ZZC   4 n1
M  ZZC   5 c3
M  ZZC   6 c4
M  ZZC   7 c5
M  ZZC   8 c6
M  ZZC   9 c7
M  ZZC  10 c8
M  ZZC  11 o2
M  ZZC  12 n2
M  ZZC  13 c9
M  ZZC  14 c10
M  ZZC  15 o3
M  ZZC  16 n3
M  ZZC  17 c11
M  ZZC  18 c12
M  ZZC  19 c13
M  ZZC  20 c14
M  ZZC  21 c15
M  ZZC  22 c16
M  ZZC  23 c17
M  ZZC  24 c18
M  ZZC  25 c19
M  ZZC  26 n4
M  ZZC  27 c20
M  ZZC  28 s1
M  ZZC  29 c21
M  ZZC  30 c22
M  ZZC  31 c23
M  ZZC  32 c24
M  ZZC  33 o4
M  ZZC  34 c25
M  ZZC  35 h11
M  ZZC  36 h12
M  ZZC  37 h13
M  ZZC  38 h01
M  ZZC  39 h31
M  ZZC  40 h51
M  ZZC  41 h52
M  ZZC  42 h53
M  ZZC  43 h61
M  ZZC  44 h62
M  ZZC  45 h63
M  ZZC  46 h71
M  ZZC  47 h72
M  ZZC  48 h73
M  ZZC  49 h91
M  ZZC  50 h02
M  ZZC  51 h111
M  ZZC  52 h121
M  ZZC  53 h122
M  ZZC  54 h123
M  ZZC  55 h141
M  ZZC  56 h151
M  ZZC  57 h191
M  ZZC  58 h192
M  ZZC  59 h193
M  ZZC  60 h201
M  ZZC  61 h211
M  ZZC  62 h221
M  ZZC  63 h231
M  ZZC  64 h232
M  ZZC  65 h241
M  ZZC  66 h41
M  ZZC  67 h251
M  ZZC  68 h252
M  ZZM   1 1
M  ZZI   1 111
M  ZZM   2 3
M  ZZI   2 121
M  ZZM   3 7
M  ZZI   3 81
M  ZZM   4 10
M  ZZI   4 211
M  ZZM   5 1
M  ZZI   5 113
M  ZZM   6 1
M  ZZI   6 110
M  ZZM   7 1
M  ZZI   7 111
M  ZZM   8 1
M  ZZI   8 111
M  ZZM   9 1
M  ZZI   9 111
M  ZZM  10 3
M  ZZI  10 121
M  ZZM  11 7
M  ZZI  11 81
M  ZZM  12 10
M  ZZI  12 192
M  ZZM  13 1
M  ZZI  13 113
M  ZZM  14 3
M  ZZI  14 121
M  ZZM  15 7
M  ZZI  15 81
M  ZZM  16 10
M  ZZI  16 211
M  ZZM  17 1
M  ZZI  17 113
M  ZZM  18 1
M  ZZI  18 111
M  ZZM  19 37
M  ZZI  19 124
M  ZZM  20 37
M  ZZI  20 125
M  ZZM  21 37
M  ZZI  21 125
M  ZZM  22 37
M  ZZI  22 124
M  ZZM  23 63
M  ZZI  23 104
M  ZZM  24 64
M  ZZI  24 105
M  ZZM  25 1
M  ZZI  25 111
M  ZZM  26 66
M  ZZI  26 222
M  ZZM  27 63
M  ZZI  27 104
M  ZZM  28 44
M  ZZI  28 248
M  ZZM  29 37
M  ZZI  29 125
M  ZZM  30 37
M  ZZI  30 125
M  ZZM  31 1
M  ZZI  31 112
M  ZZM  32 1
M  ZZI  32 113
M  ZZM  33 6
M  ZZI  33 60
M  ZZM  34 1
M  ZZI  34 112
M  ZZM  35 5
M  ZZI  35 1
M  ZZM  36 5
M  ZZI  36 1
M  ZZM  37 5
M  ZZI  37 1
M  ZZM  38 28
M  ZZI  38 11
M  ZZM  39 5
M  ZZI  39 1
M  ZZM  40 5
M  ZZI  40 1
M  ZZM  41 5
M  ZZI  41 1
M  ZZM  42 5
M  ZZI  42 1
M  ZZM  43 5
M  ZZI  43 1
M  ZZM  44 5
M  ZZI  44 1
M  ZZM  45 5
M  ZZI  45 1
M  ZZM  46 5
M  ZZI  46 1
M  ZZM  47 5
M  ZZI  47 1
M  ZZM  48 5
M  ZZI  48 1
M  ZZM  49 5
M  ZZI  49 1
M  ZZM  50 28
M  ZZI  50 11
M  ZZM  51 5
M  ZZI  51 1
M  ZZM  52 5
M  ZZI  52 1
M  ZZM  53 5
M  ZZI  53 1
M  ZZM  54 5
M  ZZI  54 1
M  ZZM  55 5
M  ZZI  55 1
M  ZZM  56 5
M  ZZI  56 1
M  ZZM  57 5
M  ZZI  57 1
M  ZZM  58 5
M  ZZI  58 1
M  ZZM  59 5
M  ZZI  59 1
M  ZZM  60 5
M  ZZI  60 1
M  ZZM  61 5
M  ZZI  61 1
M  ZZM  62 5
M  ZZI  62 1
M  ZZM  63 5
M  ZZI  63 1
M  ZZM  64 5
M  ZZI  64 1
M  ZZM  65 5
M  ZZI  65 1
M  ZZM  66 21
M  ZZI  66 20
M  ZZM  67 5
M  ZZI  67 1
M  ZZM  68 5
M  ZZI  68 1
M  END
> <IX>
1

> <NAME>
VHL_5EHR_5.pdb

> <Score>
-16.830425

> <Natom>
68

> <Nflex>
8

> <Hbond>
-6.796149

> <Hphob>
-6.34493

> <VwInt>
-24.489943

> <Dsolv>
19.348936

> <SolEl>
8.921197

> <Eintl>
6.508644

> <RecConf>
ND

> <projPath>
VHL_maps/

> <NAME_>
VHL_5EHR_5.pdb

$$$$
