VHL_5T8E_22.pdb
  MOLSOFT 04032206433D

 73 75  0  0  1  0  0  0  0  0999 V2000
   18.6195   -7.2692   -5.9503 C   0  0  0  0  0  0  0  0  0  0  0  0
   17.5524   -7.4798   -4.8933 C   0  0  0  0  0  0  0  0  0  0  0  0
   16.5634   -6.3303   -4.8656 C   0  0  0  0  0  0  0  0  0  0  0  0
   17.2261   -5.0455   -4.7027 N   0  0  0  0  0  0  0  0  0  0  0  0
   16.7597   -4.0147   -3.8848 C   0  0  0  0  0  0  0  0  0  0  0  0
   17.4241   -3.0218   -3.6216 O   0  0  0  0  0  0  0  0  0  0  0  0
   15.3449   -4.1897   -3.3534 C   0  0  0  0  0  0  0  0  0  0  0  0
   14.6312   -2.8790   -2.9907 C   0  0  2  0  0  0  0  0  0  0  0  0
   15.0523   -1.7632   -3.8169 N   0  0  0  0  0  0  0  0  0  0  0  0
   14.6389   -1.5253   -5.1158 C   0  0  0  0  0  0  0  0  0  0  0  0
   13.8828   -2.2589   -5.7378 O   0  0  0  0  0  0  0  0  0  0  0  0
   15.2236   -0.2269   -5.6877 C   0  0  2  0  0  0  0  0  0  0  0  0
   14.5825    0.8855   -5.0016 N   0  0  0  0  0  0  0  0  0  0  0  0
   15.0281    1.3414   -3.7585 C   0  0  0  0  0  0  0  0  0  0  0  0
   16.0251    0.8714   -3.2238 O   0  0  0  0  0  0  0  0  0  0  0  0
   14.2293    2.4661   -3.0857 C   0  0  1  0  0  0  0  0  0  0  0  0
   14.3688    2.2953   -1.6395 N   0  0  0  0  0  0  0  0  0  0  0  0
   13.2981    2.2787   -0.7702 C   0  0  0  0  0  0  0  0  0  0  0  0
   12.1245    2.3767   -1.0978 O   0  0  0  0  0  0  0  0  0  0  0  0
   13.7216    2.1633    0.6701 C   0  0  0  0  0  0  0  0  0  0  0  0
   14.6963    3.8636   -3.5564 C   0  0  0  0  0  0  0  0  0  0  0  0
   16.1499    4.1723   -3.1884 C   0  0  0  0  0  0  0  0  0  0  0  0
   13.7903    4.9646   -3.0067 C   0  0  0  0  0  0  0  0  0  0  0  0
   13.4181    1.3306   -5.7380 C   0  0  0  0  0  0  0  0  0  0  0  0
   13.5514    0.7414   -7.1392 C   0  0  1  0  0  0  0  0  0  0  0  0
   13.5738    1.7778   -8.1238 O   0  0  0  0  0  0  0  0  0  0  0  0
   14.8877    0.0066   -7.1524 C   0  0  0  0  0  0  0  0  0  0  0  0
   14.6898   -2.4931   -1.5251 C   0  0  0  0  0  0  0  0  0  0  0  0
   15.7310   -2.8652   -0.6725 C   0  0  0  0  0  0  0  0  0  0  0  0
   15.7191   -2.5030    0.6636 C   0  0  0  0  0  0  0  0  0  0  0  0
   14.6771   -1.7529    1.1747 C   0  0  0  0  0  0  0  0  0  0  0  0
   13.6519   -1.3524    0.3404 C   0  0  0  0  0  0  0  0  0  0  0  0
   13.6638   -1.7111   -0.9950 C   0  0  0  0  0  0  0  0  0  0  0  0
   18.2977   -4.7672   -5.6454 C   0  0  0  0  0  0  0  0  0  0  0  0
   19.2872   -5.9139   -5.8072 C   0  0  0  0  0  0  0  0  0  0  0  0
   19.3804   -8.0487   -5.8661 H   0  0  0  0  0  0  0  0  0  0  0  0
   18.1695   -7.3607   -6.9402 H   0  0  0  0  0  0  0  0  0  0  0  0
   17.0293   -8.4228   -5.0774 H   0  0  0  0  0  0  0  0  0  0  0  0
   18.0248   -7.5620   -3.9131 H   0  0  0  0  0  0  0  0  0  0  0  0
   15.9950   -6.3016   -5.7987 H   0  0  0  0  0  0  0  0  0  0  0  0
   15.8651   -6.4803   -4.0458 H   0  0  0  0  0  0  0  0  0  0  0  0
   14.7605   -4.6405   -4.1536 H   0  0  0  0  0  0  0  0  0  0  0  0
   15.3429   -4.9046   -2.5233 H   0  0  0  0  0  0  0  0  0  0  0  0
   13.5732   -3.0491   -3.2212 H   0  0  0  0  0  0  0  0  0  0  0  0
   15.7411   -1.1300   -3.4127 H   0  0  0  0  0  0  0  0  0  0  0  0
   16.3071   -0.2249   -5.5174 H   0  0  0  0  0  0  0  0  0  0  0  0
   13.1717    2.3329   -3.3290 H   0  0  0  0  0  0  0  0  0  0  0  0
   15.3028    2.1340   -1.2734 H   0  0  0  0  0  0  0  0  0  0  0  0
   12.8824    1.8072    1.2753 H   0  0  0  0  0  0  0  0  0  0  0  0
   14.0423    3.1436    1.0343 H   0  0  0  0  0  0  0  0  0  0  0  0
   14.5535    1.4612    0.7738 H   0  0  0  0  0  0  0  0  0  0  0  0
   14.6311    3.9035   -4.6480 H   0  0  0  0  0  0  0  0  0  0  0  0
   16.3046    4.1817   -2.1051 H   0  0  0  0  0  0  0  0  0  0  0  0
   16.4437    5.1556   -3.5682 H   0  0  0  0  0  0  0  0  0  0  0  0
   16.8386    3.4421   -3.6222 H   0  0  0  0  0  0  0  0  0  0  0  0
   14.0590    5.9379   -3.4281 H   0  0  0  0  0  0  0  0  0  0  0  0
   13.8596    5.0464   -1.9177 H   0  0  0  0  0  0  0  0  0  0  0  0
   12.7468    4.7754   -3.2640 H   0  0  0  0  0  0  0  0  0  0  0  0
   12.5418    0.9087   -5.2352 H   0  0  0  0  0  0  0  0  0  0  0  0
   13.3395    2.4205   -5.7283 H   0  0  0  0  0  0  0  0  0  0  0  0
   12.7190    0.0648   -7.3630 H   0  0  0  0  0  0  0  0  0  0  0  0
   12.7179    2.2446   -8.0806 H   0  0  0  0  0  0  0  0  0  0  0  0
   15.6572    0.6351   -7.6157 H   0  0  0  0  0  0  0  0  0  0  0  0
   14.8442   -0.9172   -7.7390 H   0  0  0  0  0  0  0  0  0  0  0  0
   16.5720   -3.4461   -1.0361 H   0  0  0  0  0  0  0  0  0  0  0  0
   16.5325   -2.8105    1.3131 H   0  0  0  0  0  0  0  0  0  0  0  0
   14.6647   -1.4756    2.2239 H   0  0  0  0  0  0  0  0  0  0  0  0
   12.8298   -0.7636    0.7353 H   0  0  0  0  0  0  0  0  0  0  0  0
   12.8446   -1.3830   -1.6275 H   0  0  0  0  0  0  0  0  0  0  0  0
   17.7991   -4.5786   -6.5916 H   0  0  0  0  0  0  0  0  0  0  0  0
   18.8151   -3.8401   -5.3884 H   0  0  0  0  0  0  0  0  0  0  0  0
   19.9295   -5.9539   -4.9316 H   0  0  0  0  0  0  0  0  0  0  0  0
   19.9429   -5.7250   -6.6627 H   0  0  0  0  0  0  0  0  0  0  0  0
  1 36  1  0  0  0  0
  1 37  1  0  0  0  0
  1  2  1  0  0  0  0
  1 35  1  0  0  0  0
  2 38  1  0  0  0  0
  2 39  1  0  0  0  0
  2  3  1  0  0  0  0
  3 40  1  0  0  0  0
  3 41  1  0  0  0  0
  3  4  1  0  0  0  0
  4 34  1  0  0  0  0
  4  5  1  0  0  0  0
  5  6  2  0  0  0  0
  5  7  1  0  0  0  0
  7 42  1  0  0  0  0
  7 43  1  0  0  0  0
  8  7  1  0  0  0  0
  8 44  1  0  0  0  0
  8 28  1  0  0  0  0
  8  9  1  0  0  0  0
  9 45  1  0  0  0  0
  9 10  1  0  0  0  0
 10 11  2  0  0  0  0
 12 10  1  0  0  0  0
 12 46  1  0  0  0  0
 12 27  1  0  0  0  0
 12 13  1  0  0  0  0
 13 24  1  0  0  0  0
 13 14  1  0  0  0  0
 14 15  2  0  0  0  0
 16 14  1  0  0  0  0
 16 47  1  0  0  0  0
 16 21  1  0  0  0  0
 16 17  1  0  0  0  0
 17 48  1  0  0  0  0
 17 18  1  0  0  0  0
 18 19  2  0  0  0  0
 18 20  1  0  0  0  0
 20 49  1  0  0  0  0
 20 50  1  0  0  0  0
 20 51  1  0  0  0  0
 21 52  1  0  0  0  0
 21 23  1  0  0  0  0
 21 22  1  0  0  0  0
 22 53  1  0  0  0  0
 22 54  1  0  0  0  0
 22 55  1  0  0  0  0
 23 56  1  0  0  0  0
 23 57  1  0  0  0  0
 23 58  1  0  0  0  0
 25 24  1  0  0  0  0
 24 59  1  0  0  0  0
 24 60  1  0  0  0  0
 25 27  1  0  0  0  0
 25 61  1  0  0  0  0
 25 26  1  0  0  0  0
 26 62  1  0  0  0  0
 27 63  1  0  0  0  0
 27 64  1  0  0  0  0
 28 29  1  0  0  0  0
 28 33  2  0  0  0  0
 29 65  1  0  0  0  0
 29 30  2  0  0  0  0
 30 66  1  0  0  0  0
 30 31  1  0  0  0  0
 31 67  1  0  0  0  0
 31 32  2  0  0  0  0
 32 68  1  0  0  0  0
 32 33  1  0  0  0  0
 33 69  1  0  0  0  0
 34 70  1  0  0  0  0
 34 71  1  0  0  0  0
 34 35  1  0  0  0  0
 35 72  1  0  0  0  0
 35 73  1  0  0  0  0
M  ZZC   1 c1
M  ZZC   2 c2
M  ZZC   3 c3
M  ZZC   4 n1
M  ZZC   5 c4
M  ZZC   6 o1
M  ZZC   7 c5
M  ZZC   8 c6
M  ZZC   9 n2
M  ZZC  10 c7
M  ZZC  11 o2
M  ZZC  12 c8
M  ZZC  13 n3
M  ZZC  14 c9
M  ZZC  15 o3
M  ZZC  16 c10
M  ZZC  17 n4
M  ZZC  18 c11
M  ZZC  19 o4
M  ZZC  20 c12
M  ZZC  21 c13
M  ZZC  22 c14
M  ZZC  23 c15
M  ZZC  24 c16
M  ZZC  25 c17
M  ZZC  26 o5
M  ZZC  27 c18
M  ZZC  28 c19
M  ZZC  29 c20
M  ZZC  30 c21
M  ZZC  31 c22
M  ZZC  32 c23
M  ZZC  33 c24
M  ZZC  34 c25
M  ZZC  35 c26
M  ZZC  36 h11
M  ZZC  37 h12
M  ZZC  38 h21
M  ZZC  39 h22
M  ZZC  40 h31
M  ZZC  41 h32
M  ZZC  42 h51
M  ZZC  43 h52
M  ZZC  44 h61
M  ZZC  45 h01
M  ZZC  46 h81
M  ZZC  47 h101
M  ZZC  48 h41
M  ZZC  49 h121
M  ZZC  50 h122
M  ZZC  51 h123
M  ZZC  52 h131
M  ZZC  53 h141
M  ZZC  54 h142
M  ZZC  55 h143
M  ZZC  56 h151
M  ZZC  57 h152
M  ZZC  58 h153
M  ZZC  59 h161
M  ZZC  60 h162
M  ZZC  61 h171
M  ZZC  62 h02
M  ZZC  63 h181
M  ZZC  64 h182
M  ZZC  65 h201
M  ZZC  66 h211
M  ZZC  67 h221
M  ZZC  68 h231
M  ZZC  69 h241
M  ZZC  70 h251
M  ZZC  71 h252
M  ZZC  72 h261
M  ZZC  73 h262
M  ZZM   1 1
M  ZZI   1 112
M  ZZM   2 1
M  ZZI   2 112
M  ZZM   3 1
M  ZZI   3 112
M  ZZM   4 10
M  ZZI   4 192
M  ZZM   5 3
M  ZZI   5 121
M  ZZM   6 7
M  ZZI   6 81
M  ZZM   7 1
M  ZZI   7 112
M  ZZM   8 1
M  ZZI   8 113
M  ZZM   9 10
M  ZZI   9 211
M  ZZM  10 3
M  ZZI  10 121
M  ZZM  11 7
M  ZZI  11 81
M  ZZM  12 1
M  ZZI  12 113
M  ZZM  13 10
M  ZZI  13 192
M  ZZM  14 3
M  ZZI  14 121
M  ZZM  15 7
M  ZZI  15 81
M  ZZM  16 1
M  ZZI  16 113
M  ZZM  17 10
M  ZZI  17 211
M  ZZM  18 3
M  ZZI  18 121
M  ZZM  19 7
M  ZZI  19 81
M  ZZM  20 1
M  ZZI  20 111
M  ZZM  21 1
M  ZZI  21 113
M  ZZM  22 1
M  ZZI  22 111
M  ZZM  23 1
M  ZZI  23 111
M  ZZM  24 1
M  ZZI  24 112
M  ZZM  25 1
M  ZZI  25 113
M  ZZM  26 6
M  ZZI  26 60
M  ZZM  27 1
M  ZZI  27 112
M  ZZM  28 37
M  ZZI  28 124
M  ZZM  29 37
M  ZZI  29 125
M  ZZM  30 37
M  ZZI  30 125
M  ZZM  31 37
M  ZZI  31 125
M  ZZM  32 37
M  ZZI  32 125
M  ZZM  33 37
M  ZZI  33 125
M  ZZM  34 1
M  ZZI  34 112
M  ZZM  35 1
M  ZZI  35 112
M  ZZM  36 5
M  ZZI  36 1
M  ZZM  37 5
M  ZZI  37 1
M  ZZM  38 5
M  ZZI  38 1
M  ZZM  39 5
M  ZZI  39 1
M  ZZM  40 5
M  ZZI  40 1
M  ZZM  41 5
M  ZZI  41 1
M  ZZM  42 5
M  ZZI  42 1
M  ZZM  43 5
M  ZZI  43 1
M  ZZM  44 5
M  ZZI  44 1
M  ZZM  45 28
M  ZZI  45 11
M  ZZM  46 5
M  ZZI  46 1
M  ZZM  47 5
M  ZZI  47 1
M  ZZM  48 28
M  ZZI  48 11
M  ZZM  49 5
M  ZZI  49 1
M  ZZM  50 5
M  ZZI  50 1
M  ZZM  51 5
M  ZZI  51 1
M  ZZM  52 5
M  ZZI  52 1
M  ZZM  53 5
M  ZZI  53 1
M  ZZM  54 5
M  ZZI  54 1
M  ZZM  55 5
M  ZZI  55 1
M  ZZM  56 5
M  ZZI  56 1
M  ZZM  57 5
M  ZZI  57 1
M  ZZM  58 5
M  ZZI  58 1
M  ZZM  59 5
M  ZZI  59 1
M  ZZM  60 5
M  ZZI  60 1
M  ZZM  61 5
M  ZZI  61 1
M  ZZM  62 21
M  ZZI  62 20
M  ZZM  63 5
M  ZZI  63 1
M  ZZM  64 5
M  ZZI  64 1
M  ZZM  65 5
M  ZZI  65 1
M  ZZM  66 5
M  ZZI  66 1
M  ZZM  67 5
M  ZZI  67 1
M  ZZM  68 5
M  ZZI  68 1
M  ZZM  69 5
M  ZZI  69 1
M  ZZM  70 5
M  ZZI  70 1
M  ZZM  71 5
M  ZZI  71 1
M  ZZM  72 5
M  ZZI  72 1
M  ZZM  73 5
M  ZZI  73 1
M  END
> <IX>
1

> <NAME>
VHL_5T8E_22.pdb

> <Score>
-6.757899

> <Natom>
73

> <Nflex>
11

> <Hbond>
-4.439732

> <Hphob>
-6.854151

> <VwInt>
-24.215591

> <Dsolv>
17.328128

> <SolEl>
13.881922

> <Eintl>
7.54055

> <RecConf>
ND

> <projPath>
VHL_maps/

> <NAME_>
VHL_5T8E_22.pdb

$$$$
