VHL_4QNQ_23.pdb
  MOLSOFT 04032206403D

 68 70  0  0  1  0  0  0  0  0999 V2000
   11.7312   -0.0965   -6.5663 C   0  0  0  0  0  0  0  0  0  0  0  0
   13.0413   -0.8063   -6.3929 C   0  0  0  0  0  0  0  0  0  0  0  0
   13.2494   -1.9053   -6.8770 O   0  0  0  0  0  0  0  0  0  0  0  0
   13.9435   -0.1029   -5.6326 N   0  0  0  0  0  0  0  0  0  0  0  0
   15.2760   -0.6255   -5.3218 C   0  0  1  0  0  0  0  0  0  0  0  0
   16.3475    0.5038   -5.3694 C   0  0  0  0  0  0  0  0  0  0  0  0
   17.7378   -0.0692   -5.0874 C   0  0  0  0  0  0  0  0  0  0  0  0
   16.3740    1.1149   -6.7828 C   0  0  0  0  0  0  0  0  0  0  0  0
   16.0820    1.6309   -4.3551 C   0  0  0  0  0  0  0  0  0  0  0  0
   15.1283   -1.3340   -3.9599 C   0  0  0  0  0  0  0  0  0  0  0  0
   14.5236   -0.7983   -3.0388 O   0  0  0  0  0  0  0  0  0  0  0  0
   15.6782   -2.6118   -3.8116 N   0  0  0  0  0  0  0  0  0  0  0  0
   15.4542   -3.3700   -2.5898 C   0  0  2  0  0  0  0  0  0  0  0  0
   16.4811   -2.9999   -1.5163 C   0  0  0  0  0  0  0  0  0  0  0  0
   17.6347   -2.6889   -1.7806 O   0  0  0  0  0  0  0  0  0  0  0  0
   15.9974   -3.1081   -0.2245 N   0  0  0  0  0  0  0  0  0  0  0  0
   16.8182   -2.7804    0.9322 C   0  0  1  0  0  0  0  0  0  0  0  0
   16.8898   -1.2661    1.1355 C   0  0  0  0  0  0  0  0  0  0  0  0
   16.3215   -3.4995    2.1710 C   0  0  0  0  0  0  0  0  0  0  0  0
   15.1326   -3.1520    2.8113 C   0  0  0  0  0  0  0  0  0  0  0  0
   14.6949   -3.8405    3.9312 C   0  0  0  0  0  0  0  0  0  0  0  0
   15.4153   -4.9169    4.4443 C   0  0  0  0  0  0  0  0  0  0  0  0
   14.9356   -5.6694    5.6050 C   0  0  0  0  0  0  0  0  0  0  0  0
   13.6574   -6.0904    5.9648 C   0  0  0  0  0  0  0  0  0  0  0  0
   12.3891   -5.8828    5.2256 C   0  0  0  0  0  0  0  0  0  0  0  0
   13.5803   -6.7858    7.1554 N   0  0  0  0  0  0  0  0  0  0  0  0
   14.7752   -6.8922    7.6883 C   0  0  0  0  0  0  0  0  0  0  0  0
   16.0534   -6.1776    6.8165 S   0  0  0  0  0  0  0  0  0  0  0  0
   16.6035   -5.2602    3.8029 C   0  0  0  0  0  0  0  0  0  0  0  0
   17.0503   -4.5631    2.6947 C   0  0  0  0  0  0  0  0  0  0  0  0
   15.6123   -4.8170   -3.0168 C   0  0  0  0  0  0  0  0  0  0  0  0
   16.6498   -4.7641   -4.1285 C   0  0  1  0  0  0  0  0  0  0  0  0
   16.4442   -5.8277   -5.0615 O   0  0  0  0  0  0  0  0  0  0  0  0
   16.4569   -3.3888   -4.7681 C   0  0  0  0  0  0  0  0  0  0  0  0
   11.9040    0.9166   -6.9361 H   0  0  0  0  0  0  0  0  0  0  0  0
   11.2110   -0.0502   -5.6062 H   0  0  0  0  0  0  0  0  0  0  0  0
   11.1124   -0.6371   -7.2860 H   0  0  0  0  0  0  0  0  0  0  0  0
   13.6278    0.7405   -5.1666 H   0  0  0  0  0  0  0  0  0  0  0  0
   15.5138   -1.3697   -6.0871 H   0  0  0  0  0  0  0  0  0  0  0  0
   17.7979   -0.4938   -4.0798 H   0  0  0  0  0  0  0  0  0  0  0  0
   18.4993    0.7123   -5.1569 H   0  0  0  0  0  0  0  0  0  0  0  0
   18.0023   -0.8661   -5.7893 H   0  0  0  0  0  0  0  0  0  0  0  0
   17.1715    1.8584   -6.8831 H   0  0  0  0  0  0  0  0  0  0  0  0
   15.4348    1.6198   -7.0300 H   0  0  0  0  0  0  0  0  0  0  0  0
   16.5452    0.3500   -7.5483 H   0  0  0  0  0  0  0  0  0  0  0  0
   16.8463    2.4117   -4.4271 H   0  0  0  0  0  0  0  0  0  0  0  0
   16.1009    1.2654   -3.3243 H   0  0  0  0  0  0  0  0  0  0  0  0
   15.1173    2.1195   -4.5192 H   0  0  0  0  0  0  0  0  0  0  0  0
   14.4454   -3.1759   -2.2072 H   0  0  0  0  0  0  0  0  0  0  0  0
   15.0283   -3.3625   -0.0687 H   0  0  0  0  0  0  0  0  0  0  0  0
   17.8361   -3.1226    0.7118 H   0  0  0  0  0  0  0  0  0  0  0  0
   17.3557   -0.7764    0.2748 H   0  0  0  0  0  0  0  0  0  0  0  0
   17.4789   -1.0125    2.0225 H   0  0  0  0  0  0  0  0  0  0  0  0
   15.8968   -0.8200    1.2523 H   0  0  0  0  0  0  0  0  0  0  0  0
   14.5255   -2.3325    2.4382 H   0  0  0  0  0  0  0  0  0  0  0  0
   13.7716   -3.5194    4.4023 H   0  0  0  0  0  0  0  0  0  0  0  0
   11.9785   -4.8881    5.4217 H   0  0  0  0  0  0  0  0  0  0  0  0
   11.6288   -6.6106    5.5158 H   0  0  0  0  0  0  0  0  0  0  0  0
   12.5559   -5.9702    4.1487 H   0  0  0  0  0  0  0  0  0  0  0  0
   14.9473   -7.4010    8.6262 H   0  0  0  0  0  0  0  0  0  0  0  0
   17.1982   -6.1001    4.1487 H   0  0  0  0  0  0  0  0  0  0  0  0
   17.9796   -4.8758    2.2266 H   0  0  0  0  0  0  0  0  0  0  0  0
   15.9179   -5.4818   -2.2041 H   0  0  0  0  0  0  0  0  0  0  0  0
   14.6638   -5.2040   -3.4017 H   0  0  0  0  0  0  0  0  0  0  0  0
   17.6618   -4.8549   -3.7247 H   0  0  0  0  0  0  0  0  0  0  0  0
   16.3699   -6.6583   -4.5561 H   0  0  0  0  0  0  0  0  0  0  0  0
   15.9594   -3.4245   -5.7385 H   0  0  0  0  0  0  0  0  0  0  0  0
   17.4218   -2.8979   -4.9165 H   0  0  0  0  0  0  0  0  0  0  0  0
  1 35  1  0  0  0  0
  1 36  1  0  0  0  0
  1 37  1  0  0  0  0
  1  2  1  0  0  0  0
  2  3  2  0  0  0  0
  2  4  1  0  0  0  0
  4 38  1  0  0  0  0
  5  4  1  0  0  0  0
  5 39  1  0  0  0  0
  5  6  1  0  0  0  0
  5 10  1  0  0  0  0
  6  7  1  0  0  0  0
  6  8  1  0  0  0  0
  6  9  1  0  0  0  0
  7 40  1  0  0  0  0
  7 41  1  0  0  0  0
  7 42  1  0  0  0  0
  8 43  1  0  0  0  0
  8 44  1  0  0  0  0
  8 45  1  0  0  0  0
  9 46  1  0  0  0  0
  9 47  1  0  0  0  0
  9 48  1  0  0  0  0
 10 11  2  0  0  0  0
 10 12  1  0  0  0  0
 12 34  1  0  0  0  0
 13 12  1  0  0  0  0
 13 31  1  0  0  0  0
 13 49  1  0  0  0  0
 13 14  1  0  0  0  0
 14 15  2  0  0  0  0
 14 16  1  0  0  0  0
 16 50  1  0  0  0  0
 17 16  1  0  0  0  0
 17 51  1  0  0  0  0
 17 18  1  0  0  0  0
 17 19  1  0  0  0  0
 18 52  1  0  0  0  0
 18 53  1  0  0  0  0
 18 54  1  0  0  0  0
 19 20  1  0  0  0  0
 19 30  2  0  0  0  0
 20 55  1  0  0  0  0
 20 21  2  0  0  0  0
 21 56  1  0  0  0  0
 21 22  1  0  0  0  0
 22 29  2  0  0  0  0
 22 23  1  0  0  0  0
 23 24  2  0  0  0  0
 23 28  1  0  0  0  0
 24 25  1  0  0  0  0
 24 26  1  0  0  0  0
 25 57  1  0  0  0  0
 25 58  1  0  0  0  0
 25 59  1  0  0  0  0
 26 27  2  0  0  0  0
 27 60  1  0  0  0  0
 27 28  1  0  0  0  0
 29 61  1  0  0  0  0
 29 30  1  0  0  0  0
 30 62  1  0  0  0  0
 32 31  1  0  0  0  0
 31 63  1  0  0  0  0
 31 64  1  0  0  0  0
 32 34  1  0  0  0  0
 32 65  1  0  0  0  0
 32 33  1  0  0  0  0
 33 66  1  0  0  0  0
 34 67  1  0  0  0  0
 34 68  1  0  0  0  0
M  ZZC   1 c1
M  ZZC   2 c2
M  ZZC   3 o1
M  ZZC   4 n1
M  ZZC   5 c3
M  ZZC   6 c4
M  ZZC   7 c5
M  ZZC   8 c6
M  ZZC   9 c7
M  ZZC  10 c8
M  ZZC  11 o2
M  ZZC  12 n2
M  ZZC  13 c9
M  ZZC  14 c10
M  ZZC  15 o3
M  ZZC  16 n3
M  ZZC  17 c11
M  ZZC  18 c12
M  ZZC  19 c13
M  ZZC  20 c14
M  ZZC  21 c15
M  ZZC  22 c16
M  ZZC  23 c17
M  ZZC  24 c18
M  ZZC  25 c19
M  ZZC  26 n4
M  ZZC  27 c20
M  ZZC  28 s1
M  ZZC  29 c21
M  ZZC  30 c22
M  ZZC  31 c23
M  ZZC  32 c24
M  ZZC  33 o4
M  ZZC  34 c25
M  ZZC  35 h11
M  ZZC  36 h12
M  ZZC  37 h13
M  ZZC  38 h01
M  ZZC  39 h31
M  ZZC  40 h51
M  ZZC  41 h52
M  ZZC  42 h53
M  ZZC  43 h61
M  ZZC  44 h62
M  ZZC  45 h63
M  ZZC  46 h71
M  ZZC  47 h72
M  ZZC  48 h73
M  ZZC  49 h91
M  ZZC  50 h02
M  ZZC  51 h111
M  ZZC  52 h121
M  ZZC  53 h122
M  ZZC  54 h123
M  ZZC  55 h141
M  ZZC  56 h151
M  ZZC  57 h191
M  ZZC  58 h192
M  ZZC  59 h193
M  ZZC  60 h201
M  ZZC  61 h211
M  ZZC  62 h221
M  ZZC  63 h231
M  ZZC  64 h232
M  ZZC  65 h241
M  ZZC  66 h41
M  ZZC  67 h251
M  ZZC  68 h252
M  ZZM   1 1
M  ZZI   1 111
M  ZZM   2 3
M  ZZI   2 121
M  ZZM   3 7
M  ZZI   3 81
M  ZZM   4 10
M  ZZI   4 211
M  ZZM   5 1
M  ZZI   5 113
M  ZZM   6 1
M  ZZI   6 110
M  ZZM   7 1
M  ZZI   7 111
M  ZZM   8 1
M  ZZI   8 111
M  ZZM   9 1
M  ZZI   9 111
M  ZZM  10 3
M  ZZI  10 121
M  ZZM  11 7
M  ZZI  11 81
M  ZZM  12 10
M  ZZI  12 192
M  ZZM  13 1
M  ZZI  13 113
M  ZZM  14 3
M  ZZI  14 121
M  ZZM  15 7
M  ZZI  15 81
M  ZZM  16 10
M  ZZI  16 211
M  ZZM  17 1
M  ZZI  17 113
M  ZZM  18 1
M  ZZI  18 111
M  ZZM  19 37
M  ZZI  19 124
M  ZZM  20 37
M  ZZI  20 125
M  ZZM  21 37
M  ZZI  21 125
M  ZZM  22 37
M  ZZI  22 124
M  ZZM  23 63
M  ZZI  23 104
M  ZZM  24 64
M  ZZI  24 105
M  ZZM  25 1
M  ZZI  25 111
M  ZZM  26 66
M  ZZI  26 222
M  ZZM  27 63
M  ZZI  27 104
M  ZZM  28 44
M  ZZI  28 248
M  ZZM  29 37
M  ZZI  29 125
M  ZZM  30 37
M  ZZI  30 125
M  ZZM  31 1
M  ZZI  31 112
M  ZZM  32 1
M  ZZI  32 113
M  ZZM  33 6
M  ZZI  33 60
M  ZZM  34 1
M  ZZI  34 112
M  ZZM  35 5
M  ZZI  35 1
M  ZZM  36 5
M  ZZI  36 1
M  ZZM  37 5
M  ZZI  37 1
M  ZZM  38 28
M  ZZI  38 11
M  ZZM  39 5
M  ZZI  39 1
M  ZZM  40 5
M  ZZI  40 1
M  ZZM  41 5
M  ZZI  41 1
M  ZZM  42 5
M  ZZI  42 1
M  ZZM  43 5
M  ZZI  43 1
M  ZZM  44 5
M  ZZI  44 1
M  ZZM  45 5
M  ZZI  45 1
M  ZZM  46 5
M  ZZI  46 1
M  ZZM  47 5
M  ZZI  47 1
M  ZZM  48 5
M  ZZI  48 1
M  ZZM  49 5
M  ZZI  49 1
M  ZZM  50 28
M  ZZI  50 11
M  ZZM  51 5
M  ZZI  51 1
M  ZZM  52 5
M  ZZI  52 1
M  ZZM  53 5
M  ZZI  53 1
M  ZZM  54 5
M  ZZI  54 1
M  ZZM  55 5
M  ZZI  55 1
M  ZZM  56 5
M  ZZI  56 1
M  ZZM  57 5
M  ZZI  57 1
M  ZZM  58 5
M  ZZI  58 1
M  ZZM  59 5
M  ZZI  59 1
M  ZZM  60 5
M  ZZI  60 1
M  ZZM  61 5
M  ZZI  61 1
M  ZZM  62 5
M  ZZI  62 1
M  ZZM  63 5
M  ZZI  63 1
M  ZZM  64 5
M  ZZI  64 1
M  ZZM  65 5
M  ZZI  65 1
M  ZZM  66 21
M  ZZI  66 20
M  ZZM  67 5
M  ZZI  67 1
M  ZZM  68 5
M  ZZI  68 1
M  END
> <IX>
1

> <NAME>
VHL_4QNQ_23.pdb

> <Score>
-12.389318

> <Natom>
68

> <Nflex>
8

> <Hbond>
-3.032067

> <Hphob>
-5.961644

> <VwInt>
-28.318585

> <Dsolv>
18.232695

> <SolEl>
10.736243

> <Eintl>
3.390429

> <RecConf>
ND

> <projPath>
VHL_maps/

> <NAME_>
VHL_4QNQ_23.pdb

$$$$
