VHL_3UE4_2.pdb
  MOLSOFT 04032206363D

 65 67  0  0  1  0  0  0  0  0999 V2000
   18.1081   -6.6655   -5.1155 C   0  0  0  0  0  0  0  0  0  0  0  0
   16.8969   -5.7860   -4.9686 C   0  0  0  0  0  0  0  0  0  0  0  0
   15.8114   -6.1415   -5.3937 O   0  0  0  0  0  0  0  0  0  0  0  0
   17.1420   -4.6077   -4.2909 N   0  0  0  0  0  0  0  0  0  0  0  0
   16.1335   -3.5697   -4.0206 C   0  0  1  0  0  0  0  0  0  0  0  0
   15.8894   -3.3828   -2.4938 C   0  0  0  0  0  0  0  0  0  0  0  0
   15.4228   -4.7249   -1.9171 C   0  0  0  0  0  0  0  0  0  0  0  0
   17.1529   -2.9235   -1.7521 C   0  0  0  0  0  0  0  0  0  0  0  0
   14.7840   -2.3642   -2.1920 C   0  0  0  0  0  0  0  0  0  0  0  0
   16.6277   -2.3270   -4.7911 C   0  0  0  0  0  0  0  0  0  0  0  0
   17.8225   -2.0583   -4.8440 O   0  0  0  0  0  0  0  0  0  0  0  0
   15.6756   -1.5542   -5.4638 N   0  0  0  0  0  0  0  0  0  0  0  0
   16.0692   -0.6411   -6.5266 C   0  0  2  0  0  0  0  0  0  0  0  0
   16.4527    0.7503   -6.0156 C   0  0  0  0  0  0  0  0  0  0  0  0
   15.9323    1.2685   -5.0370 O   0  0  0  0  0  0  0  0  0  0  0  0
   17.3832    1.3857   -6.8169 N   0  0  0  0  0  0  0  0  0  0  0  0
   17.8337    2.7414   -6.5479 C   0  0  0  0  0  0  0  0  0  0  0  0
   19.2442    3.0206   -7.0096 C   0  0  0  0  0  0  0  0  0  0  0  0
   20.1859    2.0066   -7.1285 C   0  0  0  0  0  0  0  0  0  0  0  0
   21.4862    2.2816   -7.4975 C   0  0  0  0  0  0  0  0  0  0  0  0
   21.9003    3.5790   -7.7522 C   0  0  0  0  0  0  0  0  0  0  0  0
   23.2852    3.8387   -8.1109 C   0  0  0  0  0  0  0  0  0  0  0  0
   24.3535    4.2564   -7.3302 C   0  0  0  0  0  0  0  0  0  0  0  0
   24.3231    4.5874   -5.8876 C   0  0  0  0  0  0  0  0  0  0  0  0
   25.5631    4.3362   -7.9908 N   0  0  0  0  0  0  0  0  0  0  0  0
   25.4009    4.0043   -9.2519 C   0  0  0  0  0  0  0  0  0  0  0  0
   23.8148    3.5896   -9.7260 S   0  0  0  0  0  0  0  0  0  0  0  0
   20.9699    4.6036   -7.6310 C   0  0  0  0  0  0  0  0  0  0  0  0
   19.6602    4.3258   -7.2636 C   0  0  0  0  0  0  0  0  0  0  0  0
   14.8333   -0.5673   -7.4091 C   0  0  0  0  0  0  0  0  0  0  0  0
   13.6796   -0.6906   -6.4249 C   0  0  1  0  0  0  0  0  0  0  0  0
   12.5392   -1.3072   -7.0167 O   0  0  0  0  0  0  0  0  0  0  0  0
   14.2295   -1.5798   -5.3226 C   0  0  0  0  0  0  0  0  0  0  0  0
   19.0184   -6.0686   -5.2250 H   0  0  0  0  0  0  0  0  0  0  0  0
   17.9977   -7.2917   -6.0059 H   0  0  0  0  0  0  0  0  0  0  0  0
   18.1905   -7.3070   -4.2349 H   0  0  0  0  0  0  0  0  0  0  0  0
   18.1034   -4.4013   -4.0442 H   0  0  0  0  0  0  0  0  0  0  0  0
   15.2020   -3.9136   -4.4700 H   0  0  0  0  0  0  0  0  0  0  0  0
   15.1688   -4.6282   -0.8589 H   0  0  0  0  0  0  0  0  0  0  0  0
   16.1912   -5.4949   -2.0073 H   0  0  0  0  0  0  0  0  0  0  0  0
   14.5307   -5.0956   -2.4319 H   0  0  0  0  0  0  0  0  0  0  0  0
   16.9748   -2.8396   -0.6751 H   0  0  0  0  0  0  0  0  0  0  0  0
   17.4966   -1.9449   -2.1011 H   0  0  0  0  0  0  0  0  0  0  0  0
   17.9748   -3.6251   -1.8818 H   0  0  0  0  0  0  0  0  0  0  0  0
   15.0670   -1.3552   -2.5044 H   0  0  0  0  0  0  0  0  0  0  0  0
   14.5761   -2.3082   -1.1183 H   0  0  0  0  0  0  0  0  0  0  0  0
   13.8434   -2.6392   -2.6787 H   0  0  0  0  0  0  0  0  0  0  0  0
   16.9168   -1.0636   -7.0761 H   0  0  0  0  0  0  0  0  0  0  0  0
   17.7752    0.8873   -7.6110 H   0  0  0  0  0  0  0  0  0  0  0  0
   17.1330    3.4045   -7.0670 H   0  0  0  0  0  0  0  0  0  0  0  0
   17.7571    2.9425   -5.4741 H   0  0  0  0  0  0  0  0  0  0  0  0
   19.9158    0.9756   -6.9330 H   0  0  0  0  0  0  0  0  0  0  0  0
   22.1835    1.4580   -7.5871 H   0  0  0  0  0  0  0  0  0  0  0  0
   25.2860    4.9867   -5.5564 H   0  0  0  0  0  0  0  0  0  0  0  0
   24.1025    3.7017   -5.2848 H   0  0  0  0  0  0  0  0  0  0  0  0
   23.5503    5.3313   -5.6800 H   0  0  0  0  0  0  0  0  0  0  0  0
   26.2192    3.9954   -9.9575 H   0  0  0  0  0  0  0  0  0  0  0  0
   21.2613    5.6323   -7.8212 H   0  0  0  0  0  0  0  0  0  0  0  0
   18.9575    5.1486   -7.1694 H   0  0  0  0  0  0  0  0  0  0  0  0
   14.7687    0.3495   -8.0047 H   0  0  0  0  0  0  0  0  0  0  0  0
   14.8225   -1.4107   -8.1081 H   0  0  0  0  0  0  0  0  0  0  0  0
   13.3850    0.2870   -6.0264 H   0  0  0  0  0  0  0  0  0  0  0  0
   12.1951   -0.7137   -7.7085 H   0  0  0  0  0  0  0  0  0  0  0  0
   13.8460   -2.6007   -5.3578 H   0  0  0  0  0  0  0  0  0  0  0  0
   13.9584   -1.1534   -4.3567 H   0  0  0  0  0  0  0  0  0  0  0  0
  1 34  1  0  0  0  0
  1 35  1  0  0  0  0
  1 36  1  0  0  0  0
  1  2  1  0  0  0  0
  2  3  2  0  0  0  0
  2  4  1  0  0  0  0
  4 37  1  0  0  0  0
  5  4  1  0  0  0  0
  5 38  1  0  0  0  0
  5  6  1  0  0  0  0
  5 10  1  0  0  0  0
  6  7  1  0  0  0  0
  6  8  1  0  0  0  0
  6  9  1  0  0  0  0
  7 39  1  0  0  0  0
  7 40  1  0  0  0  0
  7 41  1  0  0  0  0
  8 42  1  0  0  0  0
  8 43  1  0  0  0  0
  8 44  1  0  0  0  0
  9 45  1  0  0  0  0
  9 46  1  0  0  0  0
  9 47  1  0  0  0  0
 10 11  2  0  0  0  0
 10 12  1  0  0  0  0
 12 33  1  0  0  0  0
 13 12  1  0  0  0  0
 13 30  1  0  0  0  0
 13 48  1  0  0  0  0
 13 14  1  0  0  0  0
 14 15  2  0  0  0  0
 14 16  1  0  0  0  0
 16 49  1  0  0  0  0
 16 17  1  0  0  0  0
 17 50  1  0  0  0  0
 17 51  1  0  0  0  0
 17 18  1  0  0  0  0
 18 19  1  0  0  0  0
 18 29  2  0  0  0  0
 19 52  1  0  0  0  0
 19 20  2  0  0  0  0
 20 53  1  0  0  0  0
 20 21  1  0  0  0  0
 21 28  2  0  0  0  0
 21 22  1  0  0  0  0
 22 23  2  0  0  0  0
 22 27  1  0  0  0  0
 23 24  1  0  0  0  0
 23 25  1  0  0  0  0
 24 54  1  0  0  0  0
 24 55  1  0  0  0  0
 24 56  1  0  0  0  0
 25 26  2  0  0  0  0
 26 57  1  0  0  0  0
 26 27  1  0  0  0  0
 28 58  1  0  0  0  0
 28 29  1  0  0  0  0
 29 59  1  0  0  0  0
 31 30  1  0  0  0  0
 30 60  1  0  0  0  0
 30 61  1  0  0  0  0
 31 33  1  0  0  0  0
 31 62  1  0  0  0  0
 31 32  1  0  0  0  0
 32 63  1  0  0  0  0
 33 64  1  0  0  0  0
 33 65  1  0  0  0  0
M  ZZC   1 c1
M  ZZC   2 c2
M  ZZC   3 o1
M  ZZC   4 n1
M  ZZC   5 c3
M  ZZC   6 c4
M  ZZC   7 c5
M  ZZC   8 c6
M  ZZC   9 c7
M  ZZC  10 c8
M  ZZC  11 o2
M  ZZC  12 n2
M  ZZC  13 c9
M  ZZC  14 c10
M  ZZC  15 o3
M  ZZC  16 n3
M  ZZC  17 c11
M  ZZC  18 c12
M  ZZC  19 c13
M  ZZC  20 c14
M  ZZC  21 c15
M  ZZC  22 c16
M  ZZC  23 c17
M  ZZC  24 c18
M  ZZC  25 n4
M  ZZC  26 c19
M  ZZC  27 s1
M  ZZC  28 c20
M  ZZC  29 c21
M  ZZC  30 c22
M  ZZC  31 c23
M  ZZC  32 o4
M  ZZC  33 c24
M  ZZC  34 h11
M  ZZC  35 h12
M  ZZC  36 h13
M  ZZC  37 h01
M  ZZC  38 h31
M  ZZC  39 h51
M  ZZC  40 h52
M  ZZC  41 h53
M  ZZC  42 h61
M  ZZC  43 h62
M  ZZC  44 h63
M  ZZC  45 h71
M  ZZC  46 h72
M  ZZC  47 h73
M  ZZC  48 h91
M  ZZC  49 h02
M  ZZC  50 h111
M  ZZC  51 h112
M  ZZC  52 h131
M  ZZC  53 h141
M  ZZC  54 h181
M  ZZC  55 h182
M  ZZC  56 h183
M  ZZC  57 h191
M  ZZC  58 h201
M  ZZC  59 h211
M  ZZC  60 h221
M  ZZC  61 h222
M  ZZC  62 h231
M  ZZC  63 h41
M  ZZC  64 h241
M  ZZC  65 h242
M  ZZM   1 1
M  ZZI   1 111
M  ZZM   2 3
M  ZZI   2 121
M  ZZM   3 7
M  ZZI   3 81
M  ZZM   4 10
M  ZZI   4 211
M  ZZM   5 1
M  ZZI   5 113
M  ZZM   6 1
M  ZZI   6 110
M  ZZM   7 1
M  ZZI   7 111
M  ZZM   8 1
M  ZZI   8 111
M  ZZM   9 1
M  ZZI   9 111
M  ZZM  10 3
M  ZZI  10 121
M  ZZM  11 7
M  ZZI  11 81
M  ZZM  12 10
M  ZZI  12 192
M  ZZM  13 1
M  ZZI  13 113
M  ZZM  14 3
M  ZZI  14 121
M  ZZM  15 7
M  ZZI  15 81
M  ZZM  16 10
M  ZZI  16 211
M  ZZM  17 1
M  ZZI  17 112
M  ZZM  18 37
M  ZZI  18 124
M  ZZM  19 37
M  ZZI  19 125
M  ZZM  20 37
M  ZZI  20 125
M  ZZM  21 37
M  ZZI  21 124
M  ZZM  22 63
M  ZZI  22 104
M  ZZM  23 64
M  ZZI  23 105
M  ZZM  24 1
M  ZZI  24 111
M  ZZM  25 66
M  ZZI  25 222
M  ZZM  26 63
M  ZZI  26 104
M  ZZM  27 44
M  ZZI  27 248
M  ZZM  28 37
M  ZZI  28 125
M  ZZM  29 37
M  ZZI  29 125
M  ZZM  30 1
M  ZZI  30 112
M  ZZM  31 1
M  ZZI  31 113
M  ZZM  32 6
M  ZZI  32 60
M  ZZM  33 1
M  ZZI  33 112
M  ZZM  34 5
M  ZZI  34 1
M  ZZM  35 5
M  ZZI  35 1
M  ZZM  36 5
M  ZZI  36 1
M  ZZM  37 28
M  ZZI  37 11
M  ZZM  38 5
M  ZZI  38 1
M  ZZM  39 5
M  ZZI  39 1
M  ZZM  40 5
M  ZZI  40 1
M  ZZM  41 5
M  ZZI  41 1
M  ZZM  42 5
M  ZZI  42 1
M  ZZM  43 5
M  ZZI  43 1
M  ZZM  44 5
M  ZZI  44 1
M  ZZM  45 5
M  ZZI  45 1
M  ZZM  46 5
M  ZZI  46 1
M  ZZM  47 5
M  ZZI  47 1
M  ZZM  48 5
M  ZZI  48 1
M  ZZM  49 28
M  ZZI  49 11
M  ZZM  50 5
M  ZZI  50 1
M  ZZM  51 5
M  ZZI  51 1
M  ZZM  52 5
M  ZZI  52 1
M  ZZM  53 5
M  ZZI  53 1
M  ZZM  54 5
M  ZZI  54 1
M  ZZM  55 5
M  ZZI  55 1
M  ZZM  56 5
M  ZZI  56 1
M  ZZM  57 5
M  ZZI  57 1
M  ZZM  58 5
M  ZZI  58 1
M  ZZM  59 5
M  ZZI  59 1
M  ZZM  60 5
M  ZZI  60 1
M  ZZM  61 5
M  ZZI  61 1
M  ZZM  62 5
M  ZZI  62 1
M  ZZM  63 21
M  ZZI  63 20
M  ZZM  64 5
M  ZZI  64 1
M  ZZM  65 5
M  ZZI  65 1
M  END
> <IX>
1

> <NAME>
VHL_3UE4_2.pdb

> <Score>
-11.95602

> <Natom>
65

> <Nflex>
8

> <Hbond>
-4.965007

> <Hphob>
-6.516439

> <VwInt>
-28.14435

> <Dsolv>
16.870265

> <SolEl>
16.738372

> <Eintl>
7.692979

> <RecConf>
ND

> <projPath>
VHL_maps/

> <NAME_>
VHL_3UE4_2.pdb

$$$$
