VHL_5EU1_24.pdb
  MOLSOFT 04032206423D

 70 73  0  0  1  0  0  0  0  0999 V2000
   17.6444   -7.1120   -3.5799 F   0  0  0  0  0  0  0  0  0  0  0  0
   17.3047   -6.5611   -4.8011 C   0  0  0  0  0  0  0  0  0  0  0  0
   16.3287   -5.4474   -4.7273 C   0  0  0  0  0  0  0  0  0  0  0  0
   15.2365   -5.5150   -5.2786 O   0  0  0  0  0  0  0  0  0  0  0  0
   16.7857   -4.3853   -3.9742 N   0  0  0  0  0  0  0  0  0  0  0  0
   15.9783   -3.1951   -3.6981 C   0  0  1  0  0  0  0  0  0  0  0  0
   16.0004   -2.8034   -2.1912 C   0  0  0  0  0  0  0  0  0  0  0  0
   15.6193   -4.0303   -1.3496 C   0  0  0  0  0  0  0  0  0  0  0  0
   14.9680   -1.7058   -1.8965 C   0  0  0  0  0  0  0  0  0  0  0  0
   17.3782   -2.3055   -1.7278 C   0  0  0  0  0  0  0  0  0  0  0  0
   16.5010   -2.1168   -4.6673 C   0  0  0  0  0  0  0  0  0  0  0  0
   17.7029   -1.9202   -4.8073 O   0  0  0  0  0  0  0  0  0  0  0  0
   15.5473   -1.4126   -5.4042 N   0  0  0  0  0  0  0  0  0  0  0  0
   15.9293   -0.5849   -6.5387 C   0  0  2  0  0  0  0  0  0  0  0  0
   16.3133    0.8387   -6.1288 C   0  0  0  0  0  0  0  0  0  0  0  0
   15.7665    1.4371   -5.2122 O   0  0  0  0  0  0  0  0  0  0  0  0
   17.2736    1.4023   -6.9479 N   0  0  0  0  0  0  0  0  0  0  0  0
   17.6861    2.7887   -6.8019 C   0  0  0  0  0  0  0  0  0  0  0  0
   19.1136    3.0490   -7.2210 C   0  0  0  0  0  0  0  0  0  0  0  0
   19.5231    4.3116   -7.6429 C   0  0  0  0  0  0  0  0  0  0  0  0
   18.5704    5.3103   -7.7391 O   0  0  0  0  0  0  0  0  0  0  0  0
   20.8463    4.5895   -7.9684 C   0  0  0  0  0  0  0  0  0  0  0  0
   21.8020    3.5848   -7.8808 C   0  0  0  0  0  0  0  0  0  0  0  0
   23.2003    3.8321   -8.1941 C   0  0  0  0  0  0  0  0  0  0  0  0
   24.2476    4.2349   -7.3779 C   0  0  0  0  0  0  0  0  0  0  0  0
   24.1758    4.5651   -5.9366 C   0  0  0  0  0  0  0  0  0  0  0  0
   25.4785    4.3034   -7.9989 N   0  0  0  0  0  0  0  0  0  0  0  0
   25.3525    3.9832   -9.2671 C   0  0  0  0  0  0  0  0  0  0  0  0
   23.7770    3.5934   -9.7942 S   0  0  0  0  0  0  0  0  0  0  0  0
   21.3992    2.3219   -7.4720 C   0  0  0  0  0  0  0  0  0  0  0  0
   20.0851    2.0589   -7.1390 C   0  0  0  0  0  0  0  0  0  0  0  0
   14.6793   -0.5651   -7.4034 C   0  0  0  0  0  0  0  0  0  0  0  0
   13.5400   -0.6263   -6.3958 C   0  0  1  0  0  0  0  0  0  0  0  0
   12.3810   -1.2473   -6.9477 O   0  0  0  0  0  0  0  0  0  0  0  0
   14.1016   -1.4891   -5.2793 C   0  0  0  0  0  0  0  0  0  0  0  0
   18.4226   -6.5467   -5.8084 C   0  0  0  0  0  0  0  0  0  0  0  0
   17.2992   -7.5344   -5.9434 C   0  0  0  0  0  0  0  0  0  0  0  0
   17.7587   -4.3979   -3.6788 H   0  0  0  0  0  0  0  0  0  0  0  0
   14.9520   -3.4584   -3.9619 H   0  0  0  0  0  0  0  0  0  0  0  0
   15.5253   -3.7767   -0.2888 H   0  0  0  0  0  0  0  0  0  0  0  0
   16.3701   -4.8208   -1.4272 H   0  0  0  0  0  0  0  0  0  0  0  0
   14.6634   -4.4550   -1.6708 H   0  0  0  0  0  0  0  0  0  0  0  0
   15.1954   -0.7804   -2.4340 H   0  0  0  0  0  0  0  0  0  0  0  0
   14.9424   -1.4571   -0.8305 H   0  0  0  0  0  0  0  0  0  0  0  0
   13.9571   -2.0219   -2.1730 H   0  0  0  0  0  0  0  0  0  0  0  0
   17.3873   -2.1086   -0.6510 H   0  0  0  0  0  0  0  0  0  0  0  0
   17.6662   -1.3740   -2.2240 H   0  0  0  0  0  0  0  0  0  0  0  0
   18.1607   -3.0406   -1.9231 H   0  0  0  0  0  0  0  0  0  0  0  0
   16.7702   -1.0484   -7.0671 H   0  0  0  0  0  0  0  0  0  0  0  0
   17.7018    0.8364   -7.6759 H   0  0  0  0  0  0  0  0  0  0  0  0
   16.9927    3.3680   -7.4205 H   0  0  0  0  0  0  0  0  0  0  0  0
   17.5508    3.1018   -5.7613 H   0  0  0  0  0  0  0  0  0  0  0  0
   19.0071    6.1223   -8.0503 H   0  0  0  0  0  0  0  0  0  0  0  0
   21.1362    5.5846   -8.2913 H   0  0  0  0  0  0  0  0  0  0  0  0
   25.0940    5.0552   -5.6003 H   0  0  0  0  0  0  0  0  0  0  0  0
   24.0462    3.6587   -5.3415 H   0  0  0  0  0  0  0  0  0  0  0  0
   23.3419    5.2413   -5.7276 H   0  0  0  0  0  0  0  0  0  0  0  0
   26.1928    3.9691   -9.9464 H   0  0  0  0  0  0  0  0  0  0  0  0
   22.1168    1.5123   -7.4189 H   0  0  0  0  0  0  0  0  0  0  0  0
   19.8244    1.0570   -6.8171 H   0  0  0  0  0  0  0  0  0  0  0  0
   14.6051    0.3112   -8.0561 H   0  0  0  0  0  0  0  0  0  0  0  0
   14.6607   -1.4528   -8.0445 H   0  0  0  0  0  0  0  0  0  0  0  0
   13.2716    0.3698   -6.0263 H   0  0  0  0  0  0  0  0  0  0  0  0
   12.0316   -0.6743   -7.6542 H   0  0  0  0  0  0  0  0  0  0  0  0
   13.7698   -2.5270   -5.3561 H   0  0  0  0  0  0  0  0  0  0  0  0
   13.7925   -1.1113   -4.3030 H   0  0  0  0  0  0  0  0  0  0  0  0
   18.4784   -5.7047   -6.4848 H   0  0  0  0  0  0  0  0  0  0  0  0
   19.3876   -6.9215   -5.4922 H   0  0  0  0  0  0  0  0  0  0  0  0
   17.4819   -8.5656   -5.6800 H   0  0  0  0  0  0  0  0  0  0  0  0
   16.5725   -7.3981   -6.7307 H   0  0  0  0  0  0  0  0  0  0  0  0
  2  1  1  0  0  0  0
  2 36  1  0  0  0  0
  2  3  1  0  0  0  0
  2 37  1  0  0  0  0
  3  4  2  0  0  0  0
  3  5  1  0  0  0  0
  5 38  1  0  0  0  0
  6  5  1  0  0  0  0
  6 39  1  0  0  0  0
  6  7  1  0  0  0  0
  6 11  1  0  0  0  0
  7  8  1  0  0  0  0
  7  9  1  0  0  0  0
  7 10  1  0  0  0  0
  8 40  1  0  0  0  0
  8 41  1  0  0  0  0
  8 42  1  0  0  0  0
  9 43  1  0  0  0  0
  9 44  1  0  0  0  0
  9 45  1  0  0  0  0
 10 46  1  0  0  0  0
 10 47  1  0  0  0  0
 10 48  1  0  0  0  0
 11 12  2  0  0  0  0
 11 13  1  0  0  0  0
 13 35  1  0  0  0  0
 14 13  1  0  0  0  0
 14 32  1  0  0  0  0
 14 49  1  0  0  0  0
 14 15  1  0  0  0  0
 15 16  2  0  0  0  0
 15 17  1  0  0  0  0
 17 50  1  0  0  0  0
 17 18  1  0  0  0  0
 18 51  1  0  0  0  0
 18 52  1  0  0  0  0
 18 19  1  0  0  0  0
 19 20  2  0  0  0  0
 19 31  1  0  0  0  0
 20 21  1  0  0  0  0
 20 22  1  0  0  0  0
 21 53  1  0  0  0  0
 22 54  1  0  0  0  0
 22 23  2  0  0  0  0
 23 30  1  0  0  0  0
 23 24  1  0  0  0  0
 24 25  2  0  0  0  0
 24 29  1  0  0  0  0
 25 26  1  0  0  0  0
 25 27  1  0  0  0  0
 26 55  1  0  0  0  0
 26 56  1  0  0  0  0
 26 57  1  0  0  0  0
 27 28  2  0  0  0  0
 28 58  1  0  0  0  0
 28 29  1  0  0  0  0
 30 59  1  0  0  0  0
 30 31  2  0  0  0  0
 31 60  1  0  0  0  0
 33 32  1  0  0  0  0
 32 61  1  0  0  0  0
 32 62  1  0  0  0  0
 33 35  1  0  0  0  0
 33 63  1  0  0  0  0
 33 34  1  0  0  0  0
 34 64  1  0  0  0  0
 35 65  1  0  0  0  0
 35 66  1  0  0  0  0
 36 67  1  0  0  0  0
 36 68  1  0  0  0  0
 36 37  1  0  0  0  0
 37 69  1  0  0  0  0
 37 70  1  0  0  0  0
M  ZZC   1 f1
M  ZZC   2 c1
M  ZZC   3 c2
M  ZZC   4 o1
M  ZZC   5 n1
M  ZZC   6 c3
M  ZZC   7 c4
M  ZZC   8 c5
M  ZZC   9 c6
M  ZZC  10 c7
M  ZZC  11 c8
M  ZZC  12 o2
M  ZZC  13 n2
M  ZZC  14 c9
M  ZZC  15 c10
M  ZZC  16 o3
M  ZZC  17 n3
M  ZZC  18 c11
M  ZZC  19 c12
M  ZZC  20 c13
M  ZZC  21 o4
M  ZZC  22 c14
M  ZZC  23 c15
M  ZZC  24 c16
M  ZZC  25 c17
M  ZZC  26 c18
M  ZZC  27 n4
M  ZZC  28 c19
M  ZZC  29 s1
M  ZZC  30 c20
M  ZZC  31 c21
M  ZZC  32 c22
M  ZZC  33 c23
M  ZZC  34 o5
M  ZZC  35 c24
M  ZZC  36 c25
M  ZZC  37 c26
M  ZZC  38 h11
M  ZZC  39 h31
M  ZZC  40 h51
M  ZZC  41 h52
M  ZZC  42 h53
M  ZZC  43 h61
M  ZZC  44 h62
M  ZZC  45 h63
M  ZZC  46 h71
M  ZZC  47 h72
M  ZZC  48 h73
M  ZZC  49 h91
M  ZZC  50 h01
M  ZZC  51 h111
M  ZZC  52 h112
M  ZZC  53 h41
M  ZZC  54 h141
M  ZZC  55 h181
M  ZZC  56 h182
M  ZZC  57 h183
M  ZZC  58 h191
M  ZZC  59 h201
M  ZZC  60 h211
M  ZZC  61 h221
M  ZZC  62 h222
M  ZZC  63 h231
M  ZZC  64 h02
M  ZZC  65 h241
M  ZZC  66 h242
M  ZZC  67 h251
M  ZZC  68 h252
M  ZZC  69 h261
M  ZZC  70 h262
M  ZZM   1 11
M  ZZI   1 90
M  ZZM   2 22
M  ZZI   2 109
M  ZZM   3 3
M  ZZI   3 121
M  ZZM   4 7
M  ZZI   4 81
M  ZZM   5 10
M  ZZI   5 211
M  ZZM   6 1
M  ZZI   6 113
M  ZZM   7 1
M  ZZI   7 110
M  ZZM   8 1
M  ZZI   8 111
M  ZZM   9 1
M  ZZI   9 111
M  ZZM  10 1
M  ZZI  10 111
M  ZZM  11 3
M  ZZI  11 121
M  ZZM  12 7
M  ZZI  12 81
M  ZZM  13 10
M  ZZI  13 192
M  ZZM  14 1
M  ZZI  14 113
M  ZZM  15 3
M  ZZI  15 121
M  ZZM  16 7
M  ZZI  16 81
M  ZZM  17 10
M  ZZI  17 211
M  ZZM  18 1
M  ZZI  18 112
M  ZZM  19 37
M  ZZI  19 124
M  ZZM  20 37
M  ZZI  20 124
M  ZZM  21 6
M  ZZI  21 62
M  ZZM  22 37
M  ZZI  22 125
M  ZZM  23 37
M  ZZI  23 124
M  ZZM  24 63
M  ZZI  24 104
M  ZZM  25 64
M  ZZI  25 105
M  ZZM  26 1
M  ZZI  26 111
M  ZZM  27 66
M  ZZI  27 222
M  ZZM  28 63
M  ZZI  28 104
M  ZZM  29 44
M  ZZI  29 248
M  ZZM  30 37
M  ZZI  30 125
M  ZZM  31 37
M  ZZI  31 125
M  ZZM  32 1
M  ZZI  32 112
M  ZZM  33 1
M  ZZI  33 113
M  ZZM  34 6
M  ZZI  34 60
M  ZZM  35 1
M  ZZI  35 112
M  ZZM  36 22
M  ZZI  36 109
M  ZZM  37 22
M  ZZI  37 109
M  ZZM  38 28
M  ZZI  38 11
M  ZZM  39 5
M  ZZI  39 1
M  ZZM  40 5
M  ZZI  40 1
M  ZZM  41 5
M  ZZI  41 1
M  ZZM  42 5
M  ZZI  42 1
M  ZZM  43 5
M  ZZI  43 1
M  ZZM  44 5
M  ZZI  44 1
M  ZZM  45 5
M  ZZI  45 1
M  ZZM  46 5
M  ZZI  46 1
M  ZZM  47 5
M  ZZI  47 1
M  ZZM  48 5
M  ZZI  48 1
M  ZZM  49 5
M  ZZI  49 1
M  ZZM  50 28
M  ZZI  50 11
M  ZZM  51 5
M  ZZI  51 1
M  ZZM  52 5
M  ZZI  52 1
M  ZZM  53 29
M  ZZI  53 27
M  ZZM  54 5
M  ZZI  54 1
M  ZZM  55 5
M  ZZI  55 1
M  ZZM  56 5
M  ZZI  56 1
M  ZZM  57 5
M  ZZI  57 1
M  ZZM  58 5
M  ZZI  58 1
M  ZZM  59 5
M  ZZI  59 1
M  ZZM  60 5
M  ZZI  60 1
M  ZZM  61 5
M  ZZI  61 1
M  ZZM  62 5
M  ZZI  62 1
M  ZZM  63 5
M  ZZI  63 1
M  ZZM  64 21
M  ZZI  64 20
M  ZZM  65 5
M  ZZI  65 1
M  ZZM  66 5
M  ZZI  66 1
M  ZZM  67 5
M  ZZI  67 1
M  ZZM  68 5
M  ZZI  68 1
M  ZZM  69 5
M  ZZI  69 1
M  ZZM  70 5
M  ZZI  70 1
M  END
> <IX>
1

> <NAME>
VHL_5EU1_24.pdb

> <Score>
-10.228795

> <Natom>
70

> <Nflex>
9

> <Hbond>
-4.752887

> <Hphob>
-6.614786

> <VwInt>
-28.391589

> <Dsolv>
17.593293

> <SolEl>
18.026917

> <Eintl>
6.877952

> <RecConf>
ND

> <projPath>
VHL_maps/

> <NAME_>
VHL_5EU1_24.pdb

$$$$
