VHL_4QNQ_9.pdb
  MOLSOFT 04032206393D

 68 70  0  0  1  0  0  0  0  0999 V2000
   18.4176   -6.9514   -5.3681 C   0  0  0  0  0  0  0  0  0  0  0  0
   17.2315   -6.0275   -5.3236 C   0  0  0  0  0  0  0  0  0  0  0  0
   16.1323   -6.4023   -5.6997 O   0  0  0  0  0  0  0  0  0  0  0  0
   17.5170   -4.7785   -4.8048 N   0  0  0  0  0  0  0  0  0  0  0  0
   16.5334   -3.6970   -4.6932 C   0  0  1  0  0  0  0  0  0  0  0  0
   15.8954   -3.5831   -3.2695 C   0  0  0  0  0  0  0  0  0  0  0  0
   15.4374   -4.9575   -2.7576 C   0  0  0  0  0  0  0  0  0  0  0  0
   14.6524   -2.6801   -3.3119 C   0  0  0  0  0  0  0  0  0  0  0  0
   16.8772   -3.0039   -2.2383 C   0  0  0  0  0  0  0  0  0  0  0  0
   17.2196   -2.3946   -5.1478 C   0  0  0  0  0  0  0  0  0  0  0  0
   18.3646   -2.1313   -4.8099 O   0  0  0  0  0  0  0  0  0  0  0  0
   16.4759   -1.4792   -5.8937 N   0  0  0  0  0  0  0  0  0  0  0  0
   17.0123   -0.1579   -6.1973 C   0  0  2  0  0  0  0  0  0  0  0  0
   17.1029    0.7721   -4.9940 C   0  0  0  0  0  0  0  0  0  0  0  0
   16.3833    0.6751   -4.0091 O   0  0  0  0  0  0  0  0  0  0  0  0
   18.0102    1.7941   -5.1995 N   0  0  0  0  0  0  0  0  0  0  0  0
   18.0404    2.9759   -4.3611 C   0  0  1  0  0  0  0  0  0  0  0  0
   19.4732    3.4698   -4.1743 C   0  0  0  0  0  0  0  0  0  0  0  0
   17.1313    4.0322   -4.9575 C   0  0  0  0  0  0  0  0  0  0  0  0
   17.4013    4.6228   -6.1922 C   0  0  0  0  0  0  0  0  0  0  0  0
   16.5538    5.5779   -6.7266 C   0  0  0  0  0  0  0  0  0  0  0  0
   15.4093    5.9736   -6.0440 C   0  0  0  0  0  0  0  0  0  0  0  0
   14.5596    7.0282   -6.5786 C   0  0  0  0  0  0  0  0  0  0  0  0
   13.8979    7.1455   -7.7951 C   0  0  0  0  0  0  0  0  0  0  0  0
   13.8469    6.1442   -8.8847 C   0  0  0  0  0  0  0  0  0  0  0  0
   13.2279    8.3385   -7.9806 N   0  0  0  0  0  0  0  0  0  0  0  0
   13.3812    9.0969   -6.9186 C   0  0  0  0  0  0  0  0  0  0  0  0
   14.2929    8.4426   -5.6387 S   0  0  0  0  0  0  0  0  0  0  0  0
   15.1186    5.3641   -4.8279 C   0  0  0  0  0  0  0  0  0  0  0  0
   15.9657    4.4077   -4.2952 C   0  0  0  0  0  0  0  0  0  0  0  0
   16.0411    0.4562   -7.2000 C   0  0  0  0  0  0  0  0  0  0  0  0
   15.3936   -0.7447   -7.8512 C   0  0  1  0  0  0  0  0  0  0  0  0
   16.2031   -1.2030   -8.9430 O   0  0  0  0  0  0  0  0  0  0  0  0
   15.3384   -1.7818   -6.7378 C   0  0  0  0  0  0  0  0  0  0  0  0
   19.3601   -6.4022   -5.2867 H   0  0  0  0  0  0  0  0  0  0  0  0
   18.4166   -7.4895   -6.3198 H   0  0  0  0  0  0  0  0  0  0  0  0
   18.3396   -7.6681   -4.5474 H   0  0  0  0  0  0  0  0  0  0  0  0
   18.4647   -4.5878   -4.5016 H   0  0  0  0  0  0  0  0  0  0  0  0
   15.7575   -3.9385   -5.4063 H   0  0  0  0  0  0  0  0  0  0  0  0
   14.9432   -4.8800   -1.7841 H   0  0  0  0  0  0  0  0  0  0  0  0
   16.2734   -5.6508   -2.6316 H   0  0  0  0  0  0  0  0  0  0  0  0
   14.7215   -5.4153   -3.4422 H   0  0  0  0  0  0  0  0  0  0  0  0
   14.9117   -1.6547   -3.5947 H   0  0  0  0  0  0  0  0  0  0  0  0
   14.1612   -2.6307   -2.3351 H   0  0  0  0  0  0  0  0  0  0  0  0
   13.9140   -3.0293   -4.0377 H   0  0  0  0  0  0  0  0  0  0  0  0
   16.4512   -3.0196   -1.2298 H   0  0  0  0  0  0  0  0  0  0  0  0
   17.1362   -1.9632   -2.4547 H   0  0  0  0  0  0  0  0  0  0  0  0
   17.8069   -3.5749   -2.2043 H   0  0  0  0  0  0  0  0  0  0  0  0
   18.0080   -0.2828   -6.6273 H   0  0  0  0  0  0  0  0  0  0  0  0
   18.5735    1.7970   -6.0431 H   0  0  0  0  0  0  0  0  0  0  0  0
   17.6589    2.6959   -3.3729 H   0  0  0  0  0  0  0  0  0  0  0  0
   20.0785    2.7072   -3.6747 H   0  0  0  0  0  0  0  0  0  0  0  0
   19.5035    4.3775   -3.5635 H   0  0  0  0  0  0  0  0  0  0  0  0
   19.9620    3.6912   -5.1286 H   0  0  0  0  0  0  0  0  0  0  0  0
   18.2871    4.3435   -6.7546 H   0  0  0  0  0  0  0  0  0  0  0  0
   16.8109    6.0340   -7.6784 H   0  0  0  0  0  0  0  0  0  0  0  0
   14.8168    6.0551   -9.3819 H   0  0  0  0  0  0  0  0  0  0  0  0
   13.1107    6.4264   -9.6433 H   0  0  0  0  0  0  0  0  0  0  0  0
   13.5803    5.1581   -8.4939 H   0  0  0  0  0  0  0  0  0  0  0  0
   12.9600   10.0864   -6.8412 H   0  0  0  0  0  0  0  0  0  0  0  0
   14.2209    5.6320   -4.2778 H   0  0  0  0  0  0  0  0  0  0  0  0
   15.7043    3.9516   -3.3445 H   0  0  0  0  0  0  0  0  0  0  0  0
   15.2783    1.0569   -6.6907 H   0  0  0  0  0  0  0  0  0  0  0  0
   16.5570    1.1039   -7.9169 H   0  0  0  0  0  0  0  0  0  0  0  0
   14.4016   -0.5104   -8.2370 H   0  0  0  0  0  0  0  0  0  0  0  0
   17.1350   -1.1369   -8.6638 H   0  0  0  0  0  0  0  0  0  0  0  0
   15.4078   -2.8001   -7.1276 H   0  0  0  0  0  0  0  0  0  0  0  0
   14.4352   -1.6673   -6.1303 H   0  0  0  0  0  0  0  0  0  0  0  0
  1 35  1  0  0  0  0
  1 36  1  0  0  0  0
  1 37  1  0  0  0  0
  1  2  1  0  0  0  0
  2  3  2  0  0  0  0
  2  4  1  0  0  0  0
  4 38  1  0  0  0  0
  5  4  1  0  0  0  0
  5 39  1  0  0  0  0
  5  6  1  0  0  0  0
  5 10  1  0  0  0  0
  6  7  1  0  0  0  0
  6  8  1  0  0  0  0
  6  9  1  0  0  0  0
  7 40  1  0  0  0  0
  7 41  1  0  0  0  0
  7 42  1  0  0  0  0
  8 43  1  0  0  0  0
  8 44  1  0  0  0  0
  8 45  1  0  0  0  0
  9 46  1  0  0  0  0
  9 47  1  0  0  0  0
  9 48  1  0  0  0  0
 10 11  2  0  0  0  0
 10 12  1  0  0  0  0
 12 34  1  0  0  0  0
 13 12  1  0  0  0  0
 13 31  1  0  0  0  0
 13 49  1  0  0  0  0
 13 14  1  0  0  0  0
 14 15  2  0  0  0  0
 14 16  1  0  0  0  0
 16 50  1  0  0  0  0
 17 16  1  0  0  0  0
 17 51  1  0  0  0  0
 17 18  1  0  0  0  0
 17 19  1  0  0  0  0
 18 52  1  0  0  0  0
 18 53  1  0  0  0  0
 18 54  1  0  0  0  0
 19 20  1  0  0  0  0
 19 30  2  0  0  0  0
 20 55  1  0  0  0  0
 20 21  2  0  0  0  0
 21 56  1  0  0  0  0
 21 22  1  0  0  0  0
 22 29  2  0  0  0  0
 22 23  1  0  0  0  0
 23 24  2  0  0  0  0
 23 28  1  0  0  0  0
 24 25  1  0  0  0  0
 24 26  1  0  0  0  0
 25 57  1  0  0  0  0
 25 58  1  0  0  0  0
 25 59  1  0  0  0  0
 26 27  2  0  0  0  0
 27 60  1  0  0  0  0
 27 28  1  0  0  0  0
 29 61  1  0  0  0  0
 29 30  1  0  0  0  0
 30 62  1  0  0  0  0
 32 31  1  0  0  0  0
 31 63  1  0  0  0  0
 31 64  1  0  0  0  0
 32 34  1  0  0  0  0
 32 65  1  0  0  0  0
 32 33  1  0  0  0  0
 33 66  1  0  0  0  0
 34 67  1  0  0  0  0
 34 68  1  0  0  0  0
M  ZZC   1 c1
M  ZZC   2 c2
M  ZZC   3 o1
M  ZZC   4 n1
M  ZZC   5 c3
M  ZZC   6 c4
M  ZZC   7 c5
M  ZZC   8 c6
M  ZZC   9 c7
M  ZZC  10 c8
M  ZZC  11 o2
M  ZZC  12 n2
M  ZZC  13 c9
M  ZZC  14 c10
M  ZZC  15 o3
M  ZZC  16 n3
M  ZZC  17 c11
M  ZZC  18 c12
M  ZZC  19 c13
M  ZZC  20 c14
M  ZZC  21 c15
M  ZZC  22 c16
M  ZZC  23 c17
M  ZZC  24 c18
M  ZZC  25 c19
M  ZZC  26 n4
M  ZZC  27 c20
M  ZZC  28 s1
M  ZZC  29 c21
M  ZZC  30 c22
M  ZZC  31 c23
M  ZZC  32 c24
M  ZZC  33 o4
M  ZZC  34 c25
M  ZZC  35 h11
M  ZZC  36 h12
M  ZZC  37 h13
M  ZZC  38 h01
M  ZZC  39 h31
M  ZZC  40 h51
M  ZZC  41 h52
M  ZZC  42 h53
M  ZZC  43 h61
M  ZZC  44 h62
M  ZZC  45 h63
M  ZZC  46 h71
M  ZZC  47 h72
M  ZZC  48 h73
M  ZZC  49 h91
M  ZZC  50 h02
M  ZZC  51 h111
M  ZZC  52 h121
M  ZZC  53 h122
M  ZZC  54 h123
M  ZZC  55 h141
M  ZZC  56 h151
M  ZZC  57 h191
M  ZZC  58 h192
M  ZZC  59 h193
M  ZZC  60 h201
M  ZZC  61 h211
M  ZZC  62 h221
M  ZZC  63 h231
M  ZZC  64 h232
M  ZZC  65 h241
M  ZZC  66 h41
M  ZZC  67 h251
M  ZZC  68 h252
M  ZZM   1 1
M  ZZI   1 111
M  ZZM   2 3
M  ZZI   2 121
M  ZZM   3 7
M  ZZI   3 81
M  ZZM   4 10
M  ZZI   4 211
M  ZZM   5 1
M  ZZI   5 113
M  ZZM   6 1
M  ZZI   6 110
M  ZZM   7 1
M  ZZI   7 111
M  ZZM   8 1
M  ZZI   8 111
M  ZZM   9 1
M  ZZI   9 111
M  ZZM  10 3
M  ZZI  10 121
M  ZZM  11 7
M  ZZI  11 81
M  ZZM  12 10
M  ZZI  12 192
M  ZZM  13 1
M  ZZI  13 113
M  ZZM  14 3
M  ZZI  14 121
M  ZZM  15 7
M  ZZI  15 81
M  ZZM  16 10
M  ZZI  16 211
M  ZZM  17 1
M  ZZI  17 113
M  ZZM  18 1
M  ZZI  18 111
M  ZZM  19 37
M  ZZI  19 124
M  ZZM  20 37
M  ZZI  20 125
M  ZZM  21 37
M  ZZI  21 125
M  ZZM  22 37
M  ZZI  22 124
M  ZZM  23 63
M  ZZI  23 104
M  ZZM  24 64
M  ZZI  24 105
M  ZZM  25 1
M  ZZI  25 111
M  ZZM  26 66
M  ZZI  26 222
M  ZZM  27 63
M  ZZI  27 104
M  ZZM  28 44
M  ZZI  28 248
M  ZZM  29 37
M  ZZI  29 125
M  ZZM  30 37
M  ZZI  30 125
M  ZZM  31 1
M  ZZI  31 112
M  ZZM  32 1
M  ZZI  32 113
M  ZZM  33 6
M  ZZI  33 60
M  ZZM  34 1
M  ZZI  34 112
M  ZZM  35 5
M  ZZI  35 1
M  ZZM  36 5
M  ZZI  36 1
M  ZZM  37 5
M  ZZI  37 1
M  ZZM  38 28
M  ZZI  38 11
M  ZZM  39 5
M  ZZI  39 1
M  ZZM  40 5
M  ZZI  40 1
M  ZZM  41 5
M  ZZI  41 1
M  ZZM  42 5
M  ZZI  42 1
M  ZZM  43 5
M  ZZI  43 1
M  ZZM  44 5
M  ZZI  44 1
M  ZZM  45 5
M  ZZI  45 1
M  ZZM  46 5
M  ZZI  46 1
M  ZZM  47 5
M  ZZI  47 1
M  ZZM  48 5
M  ZZI  48 1
M  ZZM  49 5
M  ZZI  49 1
M  ZZM  50 28
M  ZZI  50 11
M  ZZM  51 5
M  ZZI  51 1
M  ZZM  52 5
M  ZZI  52 1
M  ZZM  53 5
M  ZZI  53 1
M  ZZM  54 5
M  ZZI  54 1
M  ZZM  55 5
M  ZZI  55 1
M  ZZM  56 5
M  ZZI  56 1
M  ZZM  57 5
M  ZZI  57 1
M  ZZM  58 5
M  ZZI  58 1
M  ZZM  59 5
M  ZZI  59 1
M  ZZM  60 5
M  ZZI  60 1
M  ZZM  61 5
M  ZZI  61 1
M  ZZM  62 5
M  ZZI  62 1
M  ZZM  63 5
M  ZZI  63 1
M  ZZM  64 5
M  ZZI  64 1
M  ZZM  65 5
M  ZZI  65 1
M  ZZM  66 21
M  ZZI  66 20
M  ZZM  67 5
M  ZZI  67 1
M  ZZM  68 5
M  ZZI  68 1
M  END
> <IX>
1

> <NAME>
VHL_4QNQ_9.pdb

> <Score>
-21.917067

> <Natom>
68

> <Nflex>
8

> <Hbond>
-8.006457

> <Hphob>
-6.3268

> <VwInt>
-30.918492

> <Dsolv>
22.153105

> <SolEl>
12.88782

> <Eintl>
5.959879

> <RecConf>
ND

> <projPath>
VHL_maps/

> <NAME_>
VHL_4QNQ_9.pdb

$$$$
