VHL_4QNQ_6.pdb
  MOLSOFT 04032206393D

 68 70  0  0  1  0  0  0  0  0999 V2000
   19.0749   -6.3077   -5.8543 C   0  0  0  0  0  0  0  0  0  0  0  0
   17.7327   -5.6513   -5.6711 C   0  0  0  0  0  0  0  0  0  0  0  0
   16.7037   -6.2402   -5.9655 O   0  0  0  0  0  0  0  0  0  0  0  0
   17.8057   -4.3650   -5.1658 N   0  0  0  0  0  0  0  0  0  0  0  0
   16.6545   -3.4779   -4.9814 C   0  0  1  0  0  0  0  0  0  0  0  0
   15.9905   -3.5983   -3.5679 C   0  0  0  0  0  0  0  0  0  0  0  0
   16.8414   -2.9349   -2.4751 C   0  0  0  0  0  0  0  0  0  0  0  0
   14.6033   -2.9404   -3.5719 C   0  0  0  0  0  0  0  0  0  0  0  0
   15.7799   -5.0633   -3.1575 C   0  0  0  0  0  0  0  0  0  0  0  0
   17.1858   -2.0587   -5.2803 C   0  0  0  0  0  0  0  0  0  0  0  0
   18.2956   -1.7199   -4.8949 O   0  0  0  0  0  0  0  0  0  0  0  0
   16.3706   -1.1453   -5.9525 N   0  0  0  0  0  0  0  0  0  0  0  0
   16.8371    0.2275   -6.1800 C   0  0  2  0  0  0  0  0  0  0  0  0
   16.7495    1.1310   -4.9459 C   0  0  0  0  0  0  0  0  0  0  0  0
   17.4240    2.1468   -4.8556 O   0  0  0  0  0  0  0  0  0  0  0  0
   15.7435    0.8018   -4.0562 N   0  0  0  0  0  0  0  0  0  0  0  0
   15.4028    1.6115   -2.8971 C   0  0  1  0  0  0  0  0  0  0  0  0
   14.2251    2.5305   -3.2251 C   0  0  0  0  0  0  0  0  0  0  0  0
   15.1609    0.7359   -1.6812 C   0  0  0  0  0  0  0  0  0  0  0  0
   16.1838    0.5475   -0.7567 C   0  0  0  0  0  0  0  0  0  0  0  0
   16.0047   -0.2466    0.3629 C   0  0  0  0  0  0  0  0  0  0  0  0
   14.7963   -0.8916    0.6008 C   0  0  0  0  0  0  0  0  0  0  0  0
   14.6183   -1.7165    1.7929 C   0  0  0  0  0  0  0  0  0  0  0  0
   15.3850   -2.7555    2.3107 C   0  0  0  0  0  0  0  0  0  0  0  0
   16.6208   -3.3367    1.7368 C   0  0  0  0  0  0  0  0  0  0  0  0
   14.9172   -3.2989    3.4907 N   0  0  0  0  0  0  0  0  0  0  0  0
   13.8231   -2.6772    3.8633 C   0  0  0  0  0  0  0  0  0  0  0  0
   13.2831   -1.4260    2.8394 S   0  0  0  0  0  0  0  0  0  0  0  0
   13.7731   -0.7183   -0.3276 C   0  0  0  0  0  0  0  0  0  0  0  0
   13.9547    0.0755   -1.4489 C   0  0  0  0  0  0  0  0  0  0  0  0
   15.9264    0.7816   -7.2710 C   0  0  0  0  0  0  0  0  0  0  0  0
   15.3507   -0.4499   -7.9403 C   0  0  1  0  0  0  0  0  0  0  0  0
   16.2254   -0.9294   -8.9726 O   0  0  0  0  0  0  0  0  0  0  0  0
   15.2522   -1.4669   -6.8161 C   0  0  0  0  0  0  0  0  0  0  0  0
   19.8945   -5.6096   -5.6703 H   0  0  0  0  0  0  0  0  0  0  0  0
   19.1594   -6.6676   -6.8828 H   0  0  0  0  0  0  0  0  0  0  0  0
   19.1599   -7.1545   -5.1682 H   0  0  0  0  0  0  0  0  0  0  0  0
   18.7194   -3.9771   -4.9562 H   0  0  0  0  0  0  0  0  0  0  0  0
   15.9440   -3.7638   -5.7492 H   0  0  0  0  0  0  0  0  0  0  0  0
   16.3957   -3.0612   -1.4854 H   0  0  0  0  0  0  0  0  0  0  0  0
   16.9407   -1.8610   -2.6521 H   0  0  0  0  0  0  0  0  0  0  0  0
   17.8550   -3.3420   -2.4370 H   0  0  0  0  0  0  0  0  0  0  0  0
   14.6570   -1.8721   -3.7675 H   0  0  0  0  0  0  0  0  0  0  0  0
   14.0996   -3.0600   -2.6079 H   0  0  0  0  0  0  0  0  0  0  0  0
   13.9507   -3.3752   -4.3327 H   0  0  0  0  0  0  0  0  0  0  0  0
   15.2518   -5.1429   -2.2015 H   0  0  0  0  0  0  0  0  0  0  0  0
   16.7248   -5.6005   -3.0402 H   0  0  0  0  0  0  0  0  0  0  0  0
   15.1793   -5.5957   -3.8958 H   0  0  0  0  0  0  0  0  0  0  0  0
   17.8821    0.1932   -6.5073 H   0  0  0  0  0  0  0  0  0  0  0  0
   15.1930   -0.0248   -4.2447 H   0  0  0  0  0  0  0  0  0  0  0  0
   16.2560    2.2643   -2.6819 H   0  0  0  0  0  0  0  0  0  0  0  0
   14.4859    3.2208   -4.0337 H   0  0  0  0  0  0  0  0  0  0  0  0
   13.9279    3.1267   -2.3561 H   0  0  0  0  0  0  0  0  0  0  0  0
   13.3489    1.9687   -3.5626 H   0  0  0  0  0  0  0  0  0  0  0  0
   17.1467    1.0289   -0.9032 H   0  0  0  0  0  0  0  0  0  0  0  0
   16.8275   -0.3445    1.0642 H   0  0  0  0  0  0  0  0  0  0  0  0
   16.9633   -4.1852    2.3335 H   0  0  0  0  0  0  0  0  0  0  0  0
   17.4285   -2.5988    1.7163 H   0  0  0  0  0  0  0  0  0  0  0  0
   16.4590   -3.6750    0.7100 H   0  0  0  0  0  0  0  0  0  0  0  0
   13.2898   -2.9375    4.7663 H   0  0  0  0  0  0  0  0  0  0  0  0
   12.8154   -1.2128   -0.1922 H   0  0  0  0  0  0  0  0  0  0  0  0
   13.1350    0.1670   -2.1524 H   0  0  0  0  0  0  0  0  0  0  0  0
   15.1165    1.3820   -6.8408 H   0  0  0  0  0  0  0  0  0  0  0  0
   16.4808    1.4196   -7.9665 H   0  0  0  0  0  0  0  0  0  0  0  0
   14.3797   -0.2387   -8.3872 H   0  0  0  0  0  0  0  0  0  0  0  0
   17.1402   -0.8781   -8.6358 H   0  0  0  0  0  0  0  0  0  0  0  0
   15.3101   -2.4919   -7.1886 H   0  0  0  0  0  0  0  0  0  0  0  0
   14.3347   -1.3281   -6.2348 H   0  0  0  0  0  0  0  0  0  0  0  0
  1 35  1  0  0  0  0
  1 36  1  0  0  0  0
  1 37  1  0  0  0  0
  1  2  1  0  0  0  0
  2  3  2  0  0  0  0
  2  4  1  0  0  0  0
  4 38  1  0  0  0  0
  5  4  1  0  0  0  0
  5 39  1  0  0  0  0
  5  6  1  0  0  0  0
  5 10  1  0  0  0  0
  6  7  1  0  0  0  0
  6  8  1  0  0  0  0
  6  9  1  0  0  0  0
  7 40  1  0  0  0  0
  7 41  1  0  0  0  0
  7 42  1  0  0  0  0
  8 43  1  0  0  0  0
  8 44  1  0  0  0  0
  8 45  1  0  0  0  0
  9 46  1  0  0  0  0
  9 47  1  0  0  0  0
  9 48  1  0  0  0  0
 10 11  2  0  0  0  0
 10 12  1  0  0  0  0
 12 34  1  0  0  0  0
 13 12  1  0  0  0  0
 13 31  1  0  0  0  0
 13 49  1  0  0  0  0
 13 14  1  0  0  0  0
 14 15  2  0  0  0  0
 14 16  1  0  0  0  0
 16 50  1  0  0  0  0
 17 16  1  0  0  0  0
 17 51  1  0  0  0  0
 17 18  1  0  0  0  0
 17 19  1  0  0  0  0
 18 52  1  0  0  0  0
 18 53  1  0  0  0  0
 18 54  1  0  0  0  0
 19 20  1  0  0  0  0
 19 30  2  0  0  0  0
 20 55  1  0  0  0  0
 20 21  2  0  0  0  0
 21 56  1  0  0  0  0
 21 22  1  0  0  0  0
 22 29  2  0  0  0  0
 22 23  1  0  0  0  0
 23 24  2  0  0  0  0
 23 28  1  0  0  0  0
 24 25  1  0  0  0  0
 24 26  1  0  0  0  0
 25 57  1  0  0  0  0
 25 58  1  0  0  0  0
 25 59  1  0  0  0  0
 26 27  2  0  0  0  0
 27 60  1  0  0  0  0
 27 28  1  0  0  0  0
 29 61  1  0  0  0  0
 29 30  1  0  0  0  0
 30 62  1  0  0  0  0
 32 31  1  0  0  0  0
 31 63  1  0  0  0  0
 31 64  1  0  0  0  0
 32 34  1  0  0  0  0
 32 65  1  0  0  0  0
 32 33  1  0  0  0  0
 33 66  1  0  0  0  0
 34 67  1  0  0  0  0
 34 68  1  0  0  0  0
M  ZZC   1 c1
M  ZZC   2 c2
M  ZZC   3 o1
M  ZZC   4 n1
M  ZZC   5 c3
M  ZZC   6 c4
M  ZZC   7 c5
M  ZZC   8 c6
M  ZZC   9 c7
M  ZZC  10 c8
M  ZZC  11 o2
M  ZZC  12 n2
M  ZZC  13 c9
M  ZZC  14 c10
M  ZZC  15 o3
M  ZZC  16 n3
M  ZZC  17 c11
M  ZZC  18 c12
M  ZZC  19 c13
M  ZZC  20 c14
M  ZZC  21 c15
M  ZZC  22 c16
M  ZZC  23 c17
M  ZZC  24 c18
M  ZZC  25 c19
M  ZZC  26 n4
M  ZZC  27 c20
M  ZZC  28 s1
M  ZZC  29 c21
M  ZZC  30 c22
M  ZZC  31 c23
M  ZZC  32 c24
M  ZZC  33 o4
M  ZZC  34 c25
M  ZZC  35 h11
M  ZZC  36 h12
M  ZZC  37 h13
M  ZZC  38 h01
M  ZZC  39 h31
M  ZZC  40 h51
M  ZZC  41 h52
M  ZZC  42 h53
M  ZZC  43 h61
M  ZZC  44 h62
M  ZZC  45 h63
M  ZZC  46 h71
M  ZZC  47 h72
M  ZZC  48 h73
M  ZZC  49 h91
M  ZZC  50 h02
M  ZZC  51 h111
M  ZZC  52 h121
M  ZZC  53 h122
M  ZZC  54 h123
M  ZZC  55 h141
M  ZZC  56 h151
M  ZZC  57 h191
M  ZZC  58 h192
M  ZZC  59 h193
M  ZZC  60 h201
M  ZZC  61 h211
M  ZZC  62 h221
M  ZZC  63 h231
M  ZZC  64 h232
M  ZZC  65 h241
M  ZZC  66 h41
M  ZZC  67 h251
M  ZZC  68 h252
M  ZZM   1 1
M  ZZI   1 111
M  ZZM   2 3
M  ZZI   2 121
M  ZZM   3 7
M  ZZI   3 81
M  ZZM   4 10
M  ZZI   4 211
M  ZZM   5 1
M  ZZI   5 113
M  ZZM   6 1
M  ZZI   6 110
M  ZZM   7 1
M  ZZI   7 111
M  ZZM   8 1
M  ZZI   8 111
M  ZZM   9 1
M  ZZI   9 111
M  ZZM  10 3
M  ZZI  10 121
M  ZZM  11 7
M  ZZI  11 81
M  ZZM  12 10
M  ZZI  12 192
M  ZZM  13 1
M  ZZI  13 113
M  ZZM  14 3
M  ZZI  14 121
M  ZZM  15 7
M  ZZI  15 81
M  ZZM  16 10
M  ZZI  16 211
M  ZZM  17 1
M  ZZI  17 113
M  ZZM  18 1
M  ZZI  18 111
M  ZZM  19 37
M  ZZI  19 124
M  ZZM  20 37
M  ZZI  20 125
M  ZZM  21 37
M  ZZI  21 125
M  ZZM  22 37
M  ZZI  22 124
M  ZZM  23 63
M  ZZI  23 104
M  ZZM  24 64
M  ZZI  24 105
M  ZZM  25 1
M  ZZI  25 111
M  ZZM  26 66
M  ZZI  26 222
M  ZZM  27 63
M  ZZI  27 104
M  ZZM  28 44
M  ZZI  28 248
M  ZZM  29 37
M  ZZI  29 125
M  ZZM  30 37
M  ZZI  30 125
M  ZZM  31 1
M  ZZI  31 112
M  ZZM  32 1
M  ZZI  32 113
M  ZZM  33 6
M  ZZI  33 60
M  ZZM  34 1
M  ZZI  34 112
M  ZZM  35 5
M  ZZI  35 1
M  ZZM  36 5
M  ZZI  36 1
M  ZZM  37 5
M  ZZI  37 1
M  ZZM  38 28
M  ZZI  38 11
M  ZZM  39 5
M  ZZI  39 1
M  ZZM  40 5
M  ZZI  40 1
M  ZZM  41 5
M  ZZI  41 1
M  ZZM  42 5
M  ZZI  42 1
M  ZZM  43 5
M  ZZI  43 1
M  ZZM  44 5
M  ZZI  44 1
M  ZZM  45 5
M  ZZI  45 1
M  ZZM  46 5
M  ZZI  46 1
M  ZZM  47 5
M  ZZI  47 1
M  ZZM  48 5
M  ZZI  48 1
M  ZZM  49 5
M  ZZI  49 1
M  ZZM  50 28
M  ZZI  50 11
M  ZZM  51 5
M  ZZI  51 1
M  ZZM  52 5
M  ZZI  52 1
M  ZZM  53 5
M  ZZI  53 1
M  ZZM  54 5
M  ZZI  54 1
M  ZZM  55 5
M  ZZI  55 1
M  ZZM  56 5
M  ZZI  56 1
M  ZZM  57 5
M  ZZI  57 1
M  ZZM  58 5
M  ZZI  58 1
M  ZZM  59 5
M  ZZI  59 1
M  ZZM  60 5
M  ZZI  60 1
M  ZZM  61 5
M  ZZI  61 1
M  ZZM  62 5
M  ZZI  62 1
M  ZZM  63 5
M  ZZI  63 1
M  ZZM  64 5
M  ZZI  64 1
M  ZZM  65 5
M  ZZI  65 1
M  ZZM  66 21
M  ZZI  66 20
M  ZZM  67 5
M  ZZI  67 1
M  ZZM  68 5
M  ZZI  68 1
M  END
> <IX>
1

> <NAME>
VHL_4QNQ_6.pdb

> <Score>
-26.024889

> <Natom>
68

> <Nflex>
8

> <Hbond>
-7.900375

> <Hphob>
-6.903006

> <VwInt>
-27.75075

> <Dsolv>
16.783315

> <SolEl>
9.797647

> <Eintl>
4.141486

> <RecConf>
ND

> <projPath>
VHL_maps/

> <NAME_>
VHL_4QNQ_6.pdb

$$$$
