VHL_5G0I_11.pdb
  MOLSOFT 04032206413D

 65 67  0  0  1  0  0  0  0  0999 V2000
   18.1208   -6.6749   -5.1480 C   0  0  0  0  0  0  0  0  0  0  0  0
   16.9058   -5.8014   -4.9900 C   0  0  0  0  0  0  0  0  0  0  0  0
   15.8178   -6.1652   -5.4017 O   0  0  0  0  0  0  0  0  0  0  0  0
   17.1514   -4.6149   -4.3269 N   0  0  0  0  0  0  0  0  0  0  0  0
   16.1439   -3.5741   -4.0637 C   0  0  1  0  0  0  0  0  0  0  0  0
   15.8637   -3.4092   -2.5411 C   0  0  0  0  0  0  0  0  0  0  0  0
   17.1074   -2.9538   -1.7642 C   0  0  0  0  0  0  0  0  0  0  0  0
   14.7468   -2.3970   -2.2604 C   0  0  0  0  0  0  0  0  0  0  0  0
   15.3893   -4.7603   -1.9896 C   0  0  0  0  0  0  0  0  0  0  0  0
   16.6732   -2.3263   -4.8012 C   0  0  0  0  0  0  0  0  0  0  0  0
   17.8721   -2.0722   -4.8167 O   0  0  0  0  0  0  0  0  0  0  0  0
   15.7551   -1.5289   -5.4916 N   0  0  0  0  0  0  0  0  0  0  0  0
   16.2064   -0.6083   -6.5244 C   0  0  2  0  0  0  0  0  0  0  0  0
   16.5856    0.7732   -5.9863 C   0  0  0  0  0  0  0  0  0  0  0  0
   16.0924    1.2585   -4.9772 O   0  0  0  0  0  0  0  0  0  0  0  0
   17.4810    1.4381   -6.8024 N   0  0  0  0  0  0  0  0  0  0  0  0
   17.9372    2.7877   -6.5189 C   0  0  0  0  0  0  0  0  0  0  0  0
   19.3459    3.0601   -6.9886 C   0  0  0  0  0  0  0  0  0  0  0  0
   20.2706    2.0355   -7.1453 C   0  0  0  0  0  0  0  0  0  0  0  0
   21.5712    2.3020   -7.5173 C   0  0  0  0  0  0  0  0  0  0  0  0
   22.0023    3.5991   -7.7407 C   0  0  0  0  0  0  0  0  0  0  0  0
   23.3894    3.8465   -8.0987 C   0  0  0  0  0  0  0  0  0  0  0  0
   24.4587    4.2612   -7.3177 C   0  0  0  0  0  0  0  0  0  0  0  0
   24.4287    4.5991   -5.8764 C   0  0  0  0  0  0  0  0  0  0  0  0
   25.6704    4.3276   -7.9762 N   0  0  0  0  0  0  0  0  0  0  0  0
   25.5087    3.9886   -9.2354 C   0  0  0  0  0  0  0  0  0  0  0  0
   23.9214    3.5790   -9.7105 S   0  0  0  0  0  0  0  0  0  0  0  0
   21.0880    4.6336   -7.5860 C   0  0  0  0  0  0  0  0  0  0  0  0
   19.7778    4.3654   -7.2136 C   0  0  0  0  0  0  0  0  0  0  0  0
   15.0160   -0.5107   -7.4619 C   0  0  0  0  0  0  0  0  0  0  0  0
   13.8218   -0.6151   -6.5286 C   0  0  1  0  0  0  0  0  0  0  0  0
   12.7074   -1.1818   -7.2108 O   0  0  0  0  0  0  0  0  0  0  0  0
   14.3040   -1.5318   -5.4126 C   0  0  0  0  0  0  0  0  0  0  0  0
   19.0371   -6.0787   -5.1872 H   0  0  0  0  0  0  0  0  0  0  0  0
   18.0402   -7.2448   -6.0785 H   0  0  0  0  0  0  0  0  0  0  0  0
   18.1715   -7.3688   -4.3053 H   0  0  0  0  0  0  0  0  0  0  0  0
   18.1117   -4.4076   -4.0765 H   0  0  0  0  0  0  0  0  0  0  0  0
   15.2201   -3.8995   -4.5405 H   0  0  0  0  0  0  0  0  0  0  0  0
   16.9048   -2.8886   -0.6902 H   0  0  0  0  0  0  0  0  0  0  0  0
   17.4517   -1.9672   -2.0891 H   0  0  0  0  0  0  0  0  0  0  0  0
   17.9374   -3.6474   -1.8879 H   0  0  0  0  0  0  0  0  0  0  0  0
   15.0361   -1.3872   -2.5698 H   0  0  0  0  0  0  0  0  0  0  0  0
   14.5134   -2.3458   -1.1925 H   0  0  0  0  0  0  0  0  0  0  0  0
   13.8338   -2.6396   -2.8109 H   0  0  0  0  0  0  0  0  0  0  0  0
   15.1167   -4.6796   -0.9347 H   0  0  0  0  0  0  0  0  0  0  0  0
   16.1610   -5.5280   -2.0740 H   0  0  0  0  0  0  0  0  0  0  0  0
   14.5087   -5.1268   -2.5267 H   0  0  0  0  0  0  0  0  0  0  0  0
   17.0735   -1.0329   -7.0391 H   0  0  0  0  0  0  0  0  0  0  0  0
   17.8423    0.9629   -7.6246 H   0  0  0  0  0  0  0  0  0  0  0  0
   17.2376    3.4604   -7.0269 H   0  0  0  0  0  0  0  0  0  0  0  0
   17.8692    2.9763   -5.4422 H   0  0  0  0  0  0  0  0  0  0  0  0
   19.9886    1.0031   -6.9748 H   0  0  0  0  0  0  0  0  0  0  0  0
   22.2559    1.4712   -7.6312 H   0  0  0  0  0  0  0  0  0  0  0  0
   25.3460    5.1122   -5.5739 H   0  0  0  0  0  0  0  0  0  0  0  0
   24.3384    3.6923   -5.2732 H   0  0  0  0  0  0  0  0  0  0  0  0
   23.5858    5.2547   -5.6402 H   0  0  0  0  0  0  0  0  0  0  0  0
   26.3288    3.9696   -9.9388 H   0  0  0  0  0  0  0  0  0  0  0  0
   21.3933    5.6627   -7.7512 H   0  0  0  0  0  0  0  0  0  0  0  0
   19.0881    5.1954   -7.0905 H   0  0  0  0  0  0  0  0  0  0  0  0
   14.9932    0.4095   -8.0553 H   0  0  0  0  0  0  0  0  0  0  0  0
   15.0207   -1.3492   -8.1678 H   0  0  0  0  0  0  0  0  0  0  0  0
   13.5418    0.3732   -6.1453 H   0  0  0  0  0  0  0  0  0  0  0  0
   11.9038   -0.9630   -6.7066 H   0  0  0  0  0  0  0  0  0  0  0  0
   13.9067   -2.5453   -5.4781 H   0  0  0  0  0  0  0  0  0  0  0  0
   13.9986   -1.1159   -4.4519 H   0  0  0  0  0  0  0  0  0  0  0  0
  1 34  1  0  0  0  0
  1 35  1  0  0  0  0
  1 36  1  0  0  0  0
  1  2  1  0  0  0  0
  2  3  2  0  0  0  0
  2  4  1  0  0  0  0
  4 37  1  0  0  0  0
  5  4  1  0  0  0  0
  5 38  1  0  0  0  0
  5  6  1  0  0  0  0
  5 10  1  0  0  0  0
  6  7  1  0  0  0  0
  6  8  1  0  0  0  0
  6  9  1  0  0  0  0
  7 39  1  0  0  0  0
  7 40  1  0  0  0  0
  7 41  1  0  0  0  0
  8 42  1  0  0  0  0
  8 43  1  0  0  0  0
  8 44  1  0  0  0  0
  9 45  1  0  0  0  0
  9 46  1  0  0  0  0
  9 47  1  0  0  0  0
 10 11  2  0  0  0  0
 10 12  1  0  0  0  0
 12 33  1  0  0  0  0
 13 12  1  0  0  0  0
 13 30  1  0  0  0  0
 13 48  1  0  0  0  0
 13 14  1  0  0  0  0
 14 15  2  0  0  0  0
 14 16  1  0  0  0  0
 16 49  1  0  0  0  0
 16 17  1  0  0  0  0
 17 50  1  0  0  0  0
 17 51  1  0  0  0  0
 17 18  1  0  0  0  0
 18 19  1  0  0  0  0
 18 29  2  0  0  0  0
 19 52  1  0  0  0  0
 19 20  2  0  0  0  0
 20 53  1  0  0  0  0
 20 21  1  0  0  0  0
 21 28  2  0  0  0  0
 21 22  1  0  0  0  0
 22 23  2  0  0  0  0
 22 27  1  0  0  0  0
 23 24  1  0  0  0  0
 23 25  1  0  0  0  0
 24 54  1  0  0  0  0
 24 55  1  0  0  0  0
 24 56  1  0  0  0  0
 25 26  2  0  0  0  0
 26 57  1  0  0  0  0
 26 27  1  0  0  0  0
 28 58  1  0  0  0  0
 28 29  1  0  0  0  0
 29 59  1  0  0  0  0
 31 30  1  0  0  0  0
 30 60  1  0  0  0  0
 30 61  1  0  0  0  0
 31 33  1  0  0  0  0
 31 62  1  0  0  0  0
 31 32  1  0  0  0  0
 32 63  1  0  0  0  0
 33 64  1  0  0  0  0
 33 65  1  0  0  0  0
M  ZZC   1 c1
M  ZZC   2 c2
M  ZZC   3 o1
M  ZZC   4 n1
M  ZZC   5 c3
M  ZZC   6 c4
M  ZZC   7 c5
M  ZZC   8 c6
M  ZZC   9 c7
M  ZZC  10 c8
M  ZZC  11 o2
M  ZZC  12 n2
M  ZZC  13 c9
M  ZZC  14 c10
M  ZZC  15 o3
M  ZZC  16 n3
M  ZZC  17 c11
M  ZZC  18 c12
M  ZZC  19 c13
M  ZZC  20 c14
M  ZZC  21 c15
M  ZZC  22 c16
M  ZZC  23 c17
M  ZZC  24 c18
M  ZZC  25 n4
M  ZZC  26 c19
M  ZZC  27 s1
M  ZZC  28 c20
M  ZZC  29 c21
M  ZZC  30 c22
M  ZZC  31 c23
M  ZZC  32 o4
M  ZZC  33 c24
M  ZZC  34 h11
M  ZZC  35 h12
M  ZZC  36 h13
M  ZZC  37 h01
M  ZZC  38 h31
M  ZZC  39 h51
M  ZZC  40 h52
M  ZZC  41 h53
M  ZZC  42 h61
M  ZZC  43 h62
M  ZZC  44 h63
M  ZZC  45 h71
M  ZZC  46 h72
M  ZZC  47 h73
M  ZZC  48 h91
M  ZZC  49 h02
M  ZZC  50 h111
M  ZZC  51 h112
M  ZZC  52 h131
M  ZZC  53 h141
M  ZZC  54 h181
M  ZZC  55 h182
M  ZZC  56 h183
M  ZZC  57 h191
M  ZZC  58 h201
M  ZZC  59 h211
M  ZZC  60 h221
M  ZZC  61 h222
M  ZZC  62 h231
M  ZZC  63 h41
M  ZZC  64 h241
M  ZZC  65 h242
M  ZZM   1 1
M  ZZI   1 111
M  ZZM   2 3
M  ZZI   2 121
M  ZZM   3 7
M  ZZI   3 81
M  ZZM   4 10
M  ZZI   4 211
M  ZZM   5 1
M  ZZI   5 113
M  ZZM   6 1
M  ZZI   6 110
M  ZZM   7 1
M  ZZI   7 111
M  ZZM   8 1
M  ZZI   8 111
M  ZZM   9 1
M  ZZI   9 111
M  ZZM  10 3
M  ZZI  10 121
M  ZZM  11 7
M  ZZI  11 81
M  ZZM  12 10
M  ZZI  12 192
M  ZZM  13 1
M  ZZI  13 113
M  ZZM  14 3
M  ZZI  14 121
M  ZZM  15 7
M  ZZI  15 81
M  ZZM  16 10
M  ZZI  16 211
M  ZZM  17 1
M  ZZI  17 112
M  ZZM  18 37
M  ZZI  18 124
M  ZZM  19 37
M  ZZI  19 125
M  ZZM  20 37
M  ZZI  20 125
M  ZZM  21 37
M  ZZI  21 124
M  ZZM  22 63
M  ZZI  22 104
M  ZZM  23 64
M  ZZI  23 105
M  ZZM  24 1
M  ZZI  24 111
M  ZZM  25 66
M  ZZI  25 222
M  ZZM  26 63
M  ZZI  26 104
M  ZZM  27 44
M  ZZI  27 248
M  ZZM  28 37
M  ZZI  28 125
M  ZZM  29 37
M  ZZI  29 125
M  ZZM  30 1
M  ZZI  30 112
M  ZZM  31 1
M  ZZI  31 113
M  ZZM  32 6
M  ZZI  32 60
M  ZZM  33 1
M  ZZI  33 112
M  ZZM  34 5
M  ZZI  34 1
M  ZZM  35 5
M  ZZI  35 1
M  ZZM  36 5
M  ZZI  36 1
M  ZZM  37 28
M  ZZI  37 11
M  ZZM  38 5
M  ZZI  38 1
M  ZZM  39 5
M  ZZI  39 1
M  ZZM  40 5
M  ZZI  40 1
M  ZZM  41 5
M  ZZI  41 1
M  ZZM  42 5
M  ZZI  42 1
M  ZZM  43 5
M  ZZI  43 1
M  ZZM  44 5
M  ZZI  44 1
M  ZZM  45 5
M  ZZI  45 1
M  ZZM  46 5
M  ZZI  46 1
M  ZZM  47 5
M  ZZI  47 1
M  ZZM  48 5
M  ZZI  48 1
M  ZZM  49 28
M  ZZI  49 11
M  ZZM  50 5
M  ZZI  50 1
M  ZZM  51 5
M  ZZI  51 1
M  ZZM  52 5
M  ZZI  52 1
M  ZZM  53 5
M  ZZI  53 1
M  ZZM  54 5
M  ZZI  54 1
M  ZZM  55 5
M  ZZI  55 1
M  ZZM  56 5
M  ZZI  56 1
M  ZZM  57 5
M  ZZI  57 1
M  ZZM  58 5
M  ZZI  58 1
M  ZZM  59 5
M  ZZI  59 1
M  ZZM  60 5
M  ZZI  60 1
M  ZZM  61 5
M  ZZI  61 1
M  ZZM  62 5
M  ZZI  62 1
M  ZZM  63 21
M  ZZI  63 20
M  ZZM  64 5
M  ZZI  64 1
M  ZZM  65 5
M  ZZI  65 1
M  END
> <IX>
1

> <NAME>
VHL_5G0I_11.pdb

> <Score>
-12.412689

> <Natom>
65

> <Nflex>
8

> <Hbond>
-5.05791

> <Hphob>
-6.507314

> <VwInt>
-28.937907

> <Dsolv>
16.717778

> <SolEl>
17.216134

> <Eintl>
8.301081

> <RecConf>
ND

> <projPath>
VHL_maps/

> <NAME_>
VHL_5G0I_11.pdb

$$$$
