VHL_4IM0_8.pdb
  MOLSOFT 04032206393D

 65 67  0  0  1  0  0  0  0  0999 V2000
   18.1107   -6.6519   -5.1154 C   0  0  0  0  0  0  0  0  0  0  0  0
   16.8979   -5.7760   -4.9589 C   0  0  0  0  0  0  0  0  0  0  0  0
   15.8125   -6.1303   -5.3850 O   0  0  0  0  0  0  0  0  0  0  0  0
   17.1419   -4.6014   -4.2744 N   0  0  0  0  0  0  0  0  0  0  0  0
   16.1345   -3.5612   -4.0085 C   0  0  1  0  0  0  0  0  0  0  0  0
   15.8978   -3.3608   -2.4820 C   0  0  0  0  0  0  0  0  0  0  0  0
   17.1653   -2.8972   -1.7497 C   0  0  0  0  0  0  0  0  0  0  0  0
   14.7948   -2.3384   -2.1838 C   0  0  0  0  0  0  0  0  0  0  0  0
   15.4329   -4.6969   -1.8906 C   0  0  0  0  0  0  0  0  0  0  0  0
   16.6269   -2.3248   -4.7905 C   0  0  0  0  0  0  0  0  0  0  0  0
   17.8215   -2.0564   -4.8481 O   0  0  0  0  0  0  0  0  0  0  0  0
   15.6729   -1.5550   -5.4640 N   0  0  0  0  0  0  0  0  0  0  0  0
   16.0643   -0.6438   -6.5295 C   0  0  2  0  0  0  0  0  0  0  0  0
   16.4456    0.7487   -6.0197 C   0  0  0  0  0  0  0  0  0  0  0  0
   15.9195    1.2697   -5.0456 O   0  0  0  0  0  0  0  0  0  0  0  0
   17.3828    1.3810   -6.8154 N   0  0  0  0  0  0  0  0  0  0  0  0
   17.8336    2.7363   -6.5449 C   0  0  0  0  0  0  0  0  0  0  0  0
   19.2435    3.0169   -7.0079 C   0  0  0  0  0  0  0  0  0  0  0  0
   19.6593    4.3228   -7.2589 C   0  0  0  0  0  0  0  0  0  0  0  0
   20.9689    4.6018   -7.6254 C   0  0  0  0  0  0  0  0  0  0  0  0
   21.8996    3.5778   -7.7495 C   0  0  0  0  0  0  0  0  0  0  0  0
   23.2848    3.8385   -8.1067 C   0  0  0  0  0  0  0  0  0  0  0  0
   24.3513    4.2600   -7.3256 C   0  0  0  0  0  0  0  0  0  0  0  0
   24.3185    4.5930   -5.8835 C   0  0  0  0  0  0  0  0  0  0  0  0
   25.5616    4.3409   -7.9848 N   0  0  0  0  0  0  0  0  0  0  0  0
   25.4018    4.0064   -9.2455 C   0  0  0  0  0  0  0  0  0  0  0  0
   23.8173    3.5872   -9.7209 S   0  0  0  0  0  0  0  0  0  0  0  0
   21.4857    2.2797   -7.4980 C   0  0  0  0  0  0  0  0  0  0  0  0
   20.1855    2.0034   -7.1294 C   0  0  0  0  0  0  0  0  0  0  0  0
   14.8272   -0.5739   -7.4105 C   0  0  0  0  0  0  0  0  0  0  0  0
   13.6747   -0.6960   -6.4248 C   0  0  1  0  0  0  0  0  0  0  0  0
   12.5345   -1.3160   -7.0134 O   0  0  0  0  0  0  0  0  0  0  0  0
   14.2268   -1.5820   -5.3210 C   0  0  0  0  0  0  0  0  0  0  0  0
   19.0197   -6.0523   -5.2210 H   0  0  0  0  0  0  0  0  0  0  0  0
   17.9999   -7.2702   -6.0112 H   0  0  0  0  0  0  0  0  0  0  0  0
   18.1961   -7.3014   -4.2409 H   0  0  0  0  0  0  0  0  0  0  0  0
   18.1030   -4.3969   -4.0253 H   0  0  0  0  0  0  0  0  0  0  0  0
   15.2010   -3.9079   -4.4524 H   0  0  0  0  0  0  0  0  0  0  0  0
   16.9892   -2.7963   -0.6739 H   0  0  0  0  0  0  0  0  0  0  0  0
   17.5138   -1.9255   -2.1130 H   0  0  0  0  0  0  0  0  0  0  0  0
   17.9827   -3.6061   -1.8688 H   0  0  0  0  0  0  0  0  0  0  0  0
   15.0780   -1.3327   -2.5064 H   0  0  0  0  0  0  0  0  0  0  0  0
   14.5913   -2.2724   -1.1098 H   0  0  0  0  0  0  0  0  0  0  0  0
   13.8523   -2.6159   -2.6652 H   0  0  0  0  0  0  0  0  0  0  0  0
   15.1796   -4.5897   -0.8330 H   0  0  0  0  0  0  0  0  0  0  0  0
   16.2029   -5.4659   -1.9744 H   0  0  0  0  0  0  0  0  0  0  0  0
   14.5419   -5.0747   -2.4023 H   0  0  0  0  0  0  0  0  0  0  0  0
   16.9124   -1.0663   -7.0783 H   0  0  0  0  0  0  0  0  0  0  0  0
   17.7771    0.8816   -7.6077 H   0  0  0  0  0  0  0  0  0  0  0  0
   17.1324    3.4007   -7.0615 H   0  0  0  0  0  0  0  0  0  0  0  0
   17.7582    2.9349   -5.4705 H   0  0  0  0  0  0  0  0  0  0  0  0
   18.9565    5.1453   -7.1623 H   0  0  0  0  0  0  0  0  0  0  0  0
   21.2602    5.6311   -7.8126 H   0  0  0  0  0  0  0  0  0  0  0  0
   25.2810    4.9912   -5.5495 H   0  0  0  0  0  0  0  0  0  0  0  0
   24.1031    3.7026   -5.2881 H   0  0  0  0  0  0  0  0  0  0  0  0
   23.5535    5.3455   -5.6719 H   0  0  0  0  0  0  0  0  0  0  0  0
   26.2212    3.9976   -9.9499 H   0  0  0  0  0  0  0  0  0  0  0  0
   22.1833    1.4563   -7.5891 H   0  0  0  0  0  0  0  0  0  0  0  0
   19.9161    0.9721   -6.9348 H   0  0  0  0  0  0  0  0  0  0  0  0
   14.7607    0.3408   -8.0089 H   0  0  0  0  0  0  0  0  0  0  0  0
   14.8166   -1.4196   -8.1067 H   0  0  0  0  0  0  0  0  0  0  0  0
   13.3798    0.2824   -6.0284 H   0  0  0  0  0  0  0  0  0  0  0  0
   12.1816   -0.7198   -7.6985 H   0  0  0  0  0  0  0  0  0  0  0  0
   13.8448   -2.6035   -5.3533 H   0  0  0  0  0  0  0  0  0  0  0  0
   13.9562   -1.1534   -4.3560 H   0  0  0  0  0  0  0  0  0  0  0  0
  1 34  1  0  0  0  0
  1 35  1  0  0  0  0
  1 36  1  0  0  0  0
  1  2  1  0  0  0  0
  2  3  2  0  0  0  0
  2  4  1  0  0  0  0
  4 37  1  0  0  0  0
  5  4  1  0  0  0  0
  5 38  1  0  0  0  0
  5  6  1  0  0  0  0
  5 10  1  0  0  0  0
  6  7  1  0  0  0  0
  6  8  1  0  0  0  0
  6  9  1  0  0  0  0
  7 39  1  0  0  0  0
  7 40  1  0  0  0  0
  7 41  1  0  0  0  0
  8 42  1  0  0  0  0
  8 43  1  0  0  0  0
  8 44  1  0  0  0  0
  9 45  1  0  0  0  0
  9 46  1  0  0  0  0
  9 47  1  0  0  0  0
 10 11  2  0  0  0  0
 10 12  1  0  0  0  0
 12 33  1  0  0  0  0
 13 12  1  0  0  0  0
 13 30  1  0  0  0  0
 13 48  1  0  0  0  0
 13 14  1  0  0  0  0
 14 15  2  0  0  0  0
 14 16  1  0  0  0  0
 16 49  1  0  0  0  0
 16 17  1  0  0  0  0
 17 50  1  0  0  0  0
 17 51  1  0  0  0  0
 17 18  1  0  0  0  0
 18 19  1  0  0  0  0
 18 29  2  0  0  0  0
 19 52  1  0  0  0  0
 19 20  2  0  0  0  0
 20 53  1  0  0  0  0
 20 21  1  0  0  0  0
 21 28  2  0  0  0  0
 21 22  1  0  0  0  0
 22 23  2  0  0  0  0
 22 27  1  0  0  0  0
 23 24  1  0  0  0  0
 23 25  1  0  0  0  0
 24 54  1  0  0  0  0
 24 55  1  0  0  0  0
 24 56  1  0  0  0  0
 25 26  2  0  0  0  0
 26 57  1  0  0  0  0
 26 27  1  0  0  0  0
 28 58  1  0  0  0  0
 28 29  1  0  0  0  0
 29 59  1  0  0  0  0
 31 30  1  0  0  0  0
 30 60  1  0  0  0  0
 30 61  1  0  0  0  0
 31 33  1  0  0  0  0
 31 62  1  0  0  0  0
 31 32  1  0  0  0  0
 32 63  1  0  0  0  0
 33 64  1  0  0  0  0
 33 65  1  0  0  0  0
M  ZZC   1 c1
M  ZZC   2 c2
M  ZZC   3 o1
M  ZZC   4 n1
M  ZZC   5 c3
M  ZZC   6 c4
M  ZZC   7 c5
M  ZZC   8 c6
M  ZZC   9 c7
M  ZZC  10 c8
M  ZZC  11 o2
M  ZZC  12 n2
M  ZZC  13 c9
M  ZZC  14 c10
M  ZZC  15 o3
M  ZZC  16 n3
M  ZZC  17 c11
M  ZZC  18 c12
M  ZZC  19 c13
M  ZZC  20 c14
M  ZZC  21 c15
M  ZZC  22 c16
M  ZZC  23 c17
M  ZZC  24 c18
M  ZZC  25 n4
M  ZZC  26 c19
M  ZZC  27 s1
M  ZZC  28 c20
M  ZZC  29 c21
M  ZZC  30 c22
M  ZZC  31 c23
M  ZZC  32 o4
M  ZZC  33 c24
M  ZZC  34 h11
M  ZZC  35 h12
M  ZZC  36 h13
M  ZZC  37 h01
M  ZZC  38 h31
M  ZZC  39 h51
M  ZZC  40 h52
M  ZZC  41 h53
M  ZZC  42 h61
M  ZZC  43 h62
M  ZZC  44 h63
M  ZZC  45 h71
M  ZZC  46 h72
M  ZZC  47 h73
M  ZZC  48 h91
M  ZZC  49 h02
M  ZZC  50 h111
M  ZZC  51 h112
M  ZZC  52 h131
M  ZZC  53 h141
M  ZZC  54 h181
M  ZZC  55 h182
M  ZZC  56 h183
M  ZZC  57 h191
M  ZZC  58 h201
M  ZZC  59 h211
M  ZZC  60 h221
M  ZZC  61 h222
M  ZZC  62 h231
M  ZZC  63 h41
M  ZZC  64 h241
M  ZZC  65 h242
M  ZZM   1 1
M  ZZI   1 111
M  ZZM   2 3
M  ZZI   2 121
M  ZZM   3 7
M  ZZI   3 81
M  ZZM   4 10
M  ZZI   4 211
M  ZZM   5 1
M  ZZI   5 113
M  ZZM   6 1
M  ZZI   6 110
M  ZZM   7 1
M  ZZI   7 111
M  ZZM   8 1
M  ZZI   8 111
M  ZZM   9 1
M  ZZI   9 111
M  ZZM  10 3
M  ZZI  10 121
M  ZZM  11 7
M  ZZI  11 81
M  ZZM  12 10
M  ZZI  12 192
M  ZZM  13 1
M  ZZI  13 113
M  ZZM  14 3
M  ZZI  14 121
M  ZZM  15 7
M  ZZI  15 81
M  ZZM  16 10
M  ZZI  16 211
M  ZZM  17 1
M  ZZI  17 112
M  ZZM  18 37
M  ZZI  18 124
M  ZZM  19 37
M  ZZI  19 125
M  ZZM  20 37
M  ZZI  20 125
M  ZZM  21 37
M  ZZI  21 124
M  ZZM  22 63
M  ZZI  22 104
M  ZZM  23 64
M  ZZI  23 105
M  ZZM  24 1
M  ZZI  24 111
M  ZZM  25 66
M  ZZI  25 222
M  ZZM  26 63
M  ZZI  26 104
M  ZZM  27 44
M  ZZI  27 248
M  ZZM  28 37
M  ZZI  28 125
M  ZZM  29 37
M  ZZI  29 125
M  ZZM  30 1
M  ZZI  30 112
M  ZZM  31 1
M  ZZI  31 113
M  ZZM  32 6
M  ZZI  32 60
M  ZZM  33 1
M  ZZI  33 112
M  ZZM  34 5
M  ZZI  34 1
M  ZZM  35 5
M  ZZI  35 1
M  ZZM  36 5
M  ZZI  36 1
M  ZZM  37 28
M  ZZI  37 11
M  ZZM  38 5
M  ZZI  38 1
M  ZZM  39 5
M  ZZI  39 1
M  ZZM  40 5
M  ZZI  40 1
M  ZZM  41 5
M  ZZI  41 1
M  ZZM  42 5
M  ZZI  42 1
M  ZZM  43 5
M  ZZI  43 1
M  ZZM  44 5
M  ZZI  44 1
M  ZZM  45 5
M  ZZI  45 1
M  ZZM  46 5
M  ZZI  46 1
M  ZZM  47 5
M  ZZI  47 1
M  ZZM  48 5
M  ZZI  48 1
M  ZZM  49 28
M  ZZI  49 11
M  ZZM  50 5
M  ZZI  50 1
M  ZZM  51 5
M  ZZI  51 1
M  ZZM  52 5
M  ZZI  52 1
M  ZZM  53 5
M  ZZI  53 1
M  ZZM  54 5
M  ZZI  54 1
M  ZZM  55 5
M  ZZI  55 1
M  ZZM  56 5
M  ZZI  56 1
M  ZZM  57 5
M  ZZI  57 1
M  ZZM  58 5
M  ZZI  58 1
M  ZZM  59 5
M  ZZI  59 1
M  ZZM  60 5
M  ZZI  60 1
M  ZZM  61 5
M  ZZI  61 1
M  ZZM  62 5
M  ZZI  62 1
M  ZZM  63 21
M  ZZI  63 20
M  ZZM  64 5
M  ZZI  64 1
M  ZZM  65 5
M  ZZI  65 1
M  END
> <IX>
1

> <NAME>
VHL_4IM0_8.pdb

> <Score>
-12.007377

> <Natom>
65

> <Nflex>
8

> <Hbond>
-4.962557

> <Hphob>
-6.49076

> <VwInt>
-28.135024

> <Dsolv>
16.761068

> <SolEl>
16.776649

> <Eintl>
7.647227

> <RecConf>
ND

> <projPath>
VHL_maps/

> <NAME_>
VHL_4IM0_8.pdb

$$$$
