VHL_4CI3_30.pdb
  MOLSOFT 04032206403D

 70 73  0  0  1  0  0  0  0  0999 V2000
   15.5213   -0.8493   -1.8396 S   0  0  0  0  0  0  0  0  0  0  0  0
   16.7017   -2.1954   -2.3363 C   0  0  0  0  0  0  0  0  0  0  0  0
   16.4501   -2.6408   -3.8113 C   0  0  2  0  0  0  0  0  0  0  0  0
   17.2859   -3.7624   -4.2662 N   0  0  0  0  0  0  0  0  0  0  0  0
   16.7939   -5.0434   -4.4001 C   0  0  0  0  0  0  0  0  0  0  0  0
   15.7222   -5.4075   -3.9388 O   0  0  0  0  0  0  0  0  0  0  0  0
   17.6670   -5.9692   -5.1863 C   0  0  0  0  0  0  0  0  0  0  0  0
   18.6927   -5.3681   -5.9101 F   0  0  0  0  0  0  0  0  0  0  0  0
   17.0912   -7.2028   -5.8440 C   0  0  0  0  0  0  0  0  0  0  0  0
   17.9943   -7.3404   -4.6643 C   0  0  0  0  0  0  0  0  0  0  0  0
   16.7267   -1.5545   -4.8678 C   0  0  0  0  0  0  0  0  0  0  0  0
   17.8759   -1.2240   -5.1379 O   0  0  0  0  0  0  0  0  0  0  0  0
   15.6325   -1.0445   -5.5651 N   0  0  0  0  0  0  0  0  0  0  0  0
   15.8225   -0.2525   -6.7704 C   0  0  2  0  0  0  0  0  0  0  0  0
   16.1501    1.2046   -6.4386 C   0  0  0  0  0  0  0  0  0  0  0  0
   15.4430    1.9008   -5.7225 O   0  0  0  0  0  0  0  0  0  0  0  0
   17.3156    1.6505   -7.0307 N   0  0  0  0  0  0  0  0  0  0  0  0
   17.8196    2.9920   -6.7932 C   0  0  0  0  0  0  0  0  0  0  0  0
   19.2626    3.1905   -7.1937 C   0  0  0  0  0  0  0  0  0  0  0  0
   20.1843    2.1499   -7.1582 C   0  0  0  0  0  0  0  0  0  0  0  0
   21.5056    2.3595   -7.4992 C   0  0  0  0  0  0  0  0  0  0  0  0
   21.9610    3.6160   -7.8675 C   0  0  0  0  0  0  0  0  0  0  0  0
   23.3616    3.8116   -8.2052 C   0  0  0  0  0  0  0  0  0  0  0  0
   24.4389    4.1682   -7.4068 C   0  0  0  0  0  0  0  0  0  0  0  0
   24.4049    4.4943   -5.9634 C   0  0  0  0  0  0  0  0  0  0  0  0
   25.6586    4.1994   -8.0525 N   0  0  0  0  0  0  0  0  0  0  0  0
   25.4951    3.8965   -9.3206 C   0  0  0  0  0  0  0  0  0  0  0  0
   23.8969    3.5631   -9.8180 S   0  0  0  0  0  0  0  0  0  0  0  0
   21.0535    4.6673   -7.8880 C   0  0  0  0  0  0  0  0  0  0  0  0
   19.7234    4.4550   -7.5549 C   0  0  0  0  0  0  0  0  0  0  0  0
   14.4975   -0.3736   -7.5010 C   0  0  0  0  0  0  0  0  0  0  0  0
   13.4688   -0.5457   -6.3948 C   0  0  1  0  0  0  0  0  0  0  0  0
   12.3411   -1.2974   -6.8426 O   0  0  0  0  0  0  0  0  0  0  0  0
   14.2262   -1.3247   -5.3342 C   0  0  0  0  0  0  0  0  0  0  0  0
   16.5591   -3.3854   -1.3727 C   0  0  0  0  0  0  0  0  0  0  0  0
   18.0955   -1.5859   -2.1321 C   0  0  0  0  0  0  0  0  0  0  0  0
   13.9914   -1.7791   -1.5211 C   0  0  0  0  0  0  0  0  0  0  0  0
   15.4169   -2.9823   -3.8967 H   0  0  0  0  0  0  0  0  0  0  0  0
   18.2081   -3.5656   -4.6500 H   0  0  0  0  0  0  0  0  0  0  0  0
   16.0464   -7.4344   -5.7039 H   0  0  0  0  0  0  0  0  0  0  0  0
   17.4903   -7.5269   -6.7940 H   0  0  0  0  0  0  0  0  0  0  0  0
   18.9877   -7.7233   -4.8545 H   0  0  0  0  0  0  0  0  0  0  0  0
   17.5498   -7.6615   -3.7331 H   0  0  0  0  0  0  0  0  0  0  0  0
   16.6323   -0.6863   -7.3686 H   0  0  0  0  0  0  0  0  0  0  0  0
   17.8559    1.0095   -7.6054 H   0  0  0  0  0  0  0  0  0  0  0  0
   17.1733    3.6713   -7.3599 H   0  0  0  0  0  0  0  0  0  0  0  0
   17.7010    3.2282   -5.7301 H   0  0  0  0  0  0  0  0  0  0  0  0
   19.8817    1.1493   -6.8685 H   0  0  0  0  0  0  0  0  0  0  0  0
   22.1832    1.5147   -7.4874 H   0  0  0  0  0  0  0  0  0  0  0  0
   25.4061    4.7368   -5.5959 H   0  0  0  0  0  0  0  0  0  0  0  0
   24.0258    3.6516   -5.3780 H   0  0  0  0  0  0  0  0  0  0  0  0
   23.7519    5.3489   -5.7740 H   0  0  0  0  0  0  0  0  0  0  0  0
   26.3200    3.8614  -10.0177 H   0  0  0  0  0  0  0  0  0  0  0  0
   21.3777    5.6649   -8.1695 H   0  0  0  0  0  0  0  0  0  0  0  0
   19.0379    5.2974   -7.5794 H   0  0  0  0  0  0  0  0  0  0  0  0
   14.2706    0.4788   -8.1503 H   0  0  0  0  0  0  0  0  0  0  0  0
   14.5191   -1.2715   -8.1265 H   0  0  0  0  0  0  0  0  0  0  0  0
   13.1268    0.4199   -6.0057 H   0  0  0  0  0  0  0  0  0  0  0  0
   11.8729   -0.7741   -7.5190 H   0  0  0  0  0  0  0  0  0  0  0  0
   14.0483   -2.4014   -5.4102 H   0  0  0  0  0  0  0  0  0  0  0  0
   13.9378   -1.0060   -4.3314 H   0  0  0  0  0  0  0  0  0  0  0  0
   16.6083   -3.0726   -0.3244 H   0  0  0  0  0  0  0  0  0  0  0  0
   17.3653   -4.1060   -1.5176 H   0  0  0  0  0  0  0  0  0  0  0  0
   15.6215   -3.9310   -1.5173 H   0  0  0  0  0  0  0  0  0  0  0  0
   18.2950   -1.3710   -1.0767 H   0  0  0  0  0  0  0  0  0  0  0  0
   18.2357   -0.6499   -2.6814 H   0  0  0  0  0  0  0  0  0  0  0  0
   18.8723   -2.2753   -2.4610 H   0  0  0  0  0  0  0  0  0  0  0  0
   13.1686   -1.0717   -1.3916 H   0  0  0  0  0  0  0  0  0  0  0  0
   14.0806   -2.3587   -0.5995 H   0  0  0  0  0  0  0  0  0  0  0  0
   13.7423   -2.4405   -2.3538 H   0  0  0  0  0  0  0  0  0  0  0  0
  1  2  1  0  0  0  0
  1 37  1  0  0  0  0
  3  2  1  0  0  0  0
  2 35  1  0  0  0  0
  2 36  1  0  0  0  0
  3  4  1  0  0  0  0
  3 38  1  0  0  0  0
  3 11  1  0  0  0  0
  4  5  1  0  0  0  0
  4 39  1  0  0  0  0
  5  7  1  0  0  0  0
  5  6  2  0  0  0  0
  7  8  1  0  0  0  0
  7  9  1  0  0  0  0
  7 10  1  0  0  0  0
  9 40  1  0  0  0  0
  9 41  1  0  0  0  0
  9 10  1  0  0  0  0
 10 42  1  0  0  0  0
 10 43  1  0  0  0  0
 11 12  2  0  0  0  0
 11 13  1  0  0  0  0
 13 34  1  0  0  0  0
 14 13  1  0  0  0  0
 14 31  1  0  0  0  0
 14 44  1  0  0  0  0
 14 15  1  0  0  0  0
 15 16  2  0  0  0  0
 15 17  1  0  0  0  0
 17 45  1  0  0  0  0
 17 18  1  0  0  0  0
 18 46  1  0  0  0  0
 18 47  1  0  0  0  0
 18 19  1  0  0  0  0
 19 20  1  0  0  0  0
 19 30  2  0  0  0  0
 20 48  1  0  0  0  0
 20 21  2  0  0  0  0
 21 49  1  0  0  0  0
 21 22  1  0  0  0  0
 22 29  2  0  0  0  0
 22 23  1  0  0  0  0
 23 24  2  0  0  0  0
 23 28  1  0  0  0  0
 24 25  1  0  0  0  0
 24 26  1  0  0  0  0
 25 50  1  0  0  0  0
 25 51  1  0  0  0  0
 25 52  1  0  0  0  0
 26 27  2  0  0  0  0
 27 53  1  0  0  0  0
 27 28  1  0  0  0  0
 29 54  1  0  0  0  0
 29 30  1  0  0  0  0
 30 55  1  0  0  0  0
 32 31  1  0  0  0  0
 31 56  1  0  0  0  0
 31 57  1  0  0  0  0
 32 34  1  0  0  0  0
 32 58  1  0  0  0  0
 32 33  1  0  0  0  0
 33 59  1  0  0  0  0
 34 60  1  0  0  0  0
 34 61  1  0  0  0  0
 35 62  1  0  0  0  0
 35 63  1  0  0  0  0
 35 64  1  0  0  0  0
 36 65  1  0  0  0  0
 36 66  1  0  0  0  0
 36 67  1  0  0  0  0
 37 68  1  0  0  0  0
 37 69  1  0  0  0  0
 37 70  1  0  0  0  0
M  ZZC   1 s1
M  ZZC   2 c1
M  ZZC   3 c2
M  ZZC   4 n1
M  ZZC   5 c3
M  ZZC   6 o1
M  ZZC   7 c4
M  ZZC   8 f1
M  ZZC   9 c5
M  ZZC  10 c6
M  ZZC  11 c7
M  ZZC  12 o2
M  ZZC  13 n2
M  ZZC  14 c8
M  ZZC  15 c9
M  ZZC  16 o3
M  ZZC  17 n3
M  ZZC  18 c10
M  ZZC  19 c11
M  ZZC  20 c12
M  ZZC  21 c13
M  ZZC  22 c14
M  ZZC  23 c15
M  ZZC  24 c16
M  ZZC  25 c17
M  ZZC  26 n4
M  ZZC  27 c18
M  ZZC  28 s2
M  ZZC  29 c19
M  ZZC  30 c20
M  ZZC  31 c21
M  ZZC  32 c22
M  ZZC  33 o4
M  ZZC  34 c23
M  ZZC  35 c24
M  ZZC  36 c25
M  ZZC  37 c26
M  ZZC  38 h21
M  ZZC  39 h11
M  ZZC  40 h51
M  ZZC  41 h52
M  ZZC  42 h61
M  ZZC  43 h62
M  ZZC  44 h81
M  ZZC  45 h31
M  ZZC  46 h101
M  ZZC  47 h102
M  ZZC  48 h121
M  ZZC  49 h131
M  ZZC  50 h171
M  ZZC  51 h172
M  ZZC  52 h173
M  ZZC  53 h181
M  ZZC  54 h191
M  ZZC  55 h201
M  ZZC  56 h211
M  ZZC  57 h212
M  ZZC  58 h221
M  ZZC  59 h41
M  ZZC  60 h231
M  ZZC  61 h232
M  ZZC  62 h241
M  ZZC  63 h242
M  ZZC  64 h243
M  ZZC  65 h251
M  ZZC  66 h252
M  ZZC  67 h253
M  ZZC  68 h261
M  ZZC  69 h262
M  ZZC  70 h263
M  ZZM   1 15
M  ZZI   1 253
M  ZZM   2 1
M  ZZI   2 110
M  ZZM   3 1
M  ZZI   3 113
M  ZZM   4 10
M  ZZI   4 211
M  ZZM   5 3
M  ZZI   5 121
M  ZZM   6 7
M  ZZI   6 81
M  ZZM   7 22
M  ZZI   7 109
M  ZZM   8 11
M  ZZI   8 90
M  ZZM   9 22
M  ZZI   9 109
M  ZZM  10 22
M  ZZI  10 109
M  ZZM  11 3
M  ZZI  11 121
M  ZZM  12 7
M  ZZI  12 81
M  ZZM  13 10
M  ZZI  13 192
M  ZZM  14 1
M  ZZI  14 113
M  ZZM  15 3
M  ZZI  15 121
M  ZZM  16 7
M  ZZI  16 81
M  ZZM  17 10
M  ZZI  17 211
M  ZZM  18 1
M  ZZI  18 112
M  ZZM  19 37
M  ZZI  19 124
M  ZZM  20 37
M  ZZI  20 125
M  ZZM  21 37
M  ZZI  21 125
M  ZZM  22 37
M  ZZI  22 124
M  ZZM  23 63
M  ZZI  23 104
M  ZZM  24 64
M  ZZI  24 105
M  ZZM  25 1
M  ZZI  25 111
M  ZZM  26 66
M  ZZI  26 222
M  ZZM  27 63
M  ZZI  27 104
M  ZZM  28 44
M  ZZI  28 248
M  ZZM  29 37
M  ZZI  29 125
M  ZZM  30 37
M  ZZI  30 125
M  ZZM  31 1
M  ZZI  31 112
M  ZZM  32 1
M  ZZI  32 113
M  ZZM  33 6
M  ZZI  33 60
M  ZZM  34 1
M  ZZI  34 112
M  ZZM  35 1
M  ZZI  35 111
M  ZZM  36 1
M  ZZI  36 111
M  ZZM  37 1
M  ZZI  37 111
M  ZZM  38 5
M  ZZI  38 1
M  ZZM  39 28
M  ZZI  39 11
M  ZZM  40 5
M  ZZI  40 1
M  ZZM  41 5
M  ZZI  41 1
M  ZZM  42 5
M  ZZI  42 1
M  ZZM  43 5
M  ZZI  43 1
M  ZZM  44 5
M  ZZI  44 1
M  ZZM  45 28
M  ZZI  45 11
M  ZZM  46 5
M  ZZI  46 1
M  ZZM  47 5
M  ZZI  47 1
M  ZZM  48 5
M  ZZI  48 1
M  ZZM  49 5
M  ZZI  49 1
M  ZZM  50 5
M  ZZI  50 1
M  ZZM  51 5
M  ZZI  51 1
M  ZZM  52 5
M  ZZI  52 1
M  ZZM  53 5
M  ZZI  53 1
M  ZZM  54 5
M  ZZI  54 1
M  ZZM  55 5
M  ZZI  55 1
M  ZZM  56 5
M  ZZI  56 1
M  ZZM  57 5
M  ZZI  57 1
M  ZZM  58 5
M  ZZI  58 1
M  ZZM  59 21
M  ZZI  59 20
M  ZZM  60 5
M  ZZI  60 1
M  ZZM  61 5
M  ZZI  61 1
M  ZZM  62 5
M  ZZI  62 1
M  ZZM  63 5
M  ZZI  63 1
M  ZZM  64 5
M  ZZI  64 1
M  ZZM  65 5
M  ZZI  65 1
M  ZZM  66 5
M  ZZI  66 1
M  ZZM  67 5
M  ZZI  67 1
M  ZZM  68 5
M  ZZI  68 1
M  ZZM  69 5
M  ZZI  69 1
M  ZZM  70 5
M  ZZI  70 1
M  END
> <IX>
1

> <NAME>
VHL_4CI3_30.pdb

> <Score>
-20.646674

> <Natom>
70

> <Nflex>
10

> <Hbond>
-6.406151

> <Hphob>
-6.78825

> <VwInt>
-33.784524

> <Dsolv>
17.134685

> <SolEl>
17.212394

> <Eintl>
6.137245

> <RecConf>
ND

> <projPath>
VHL_maps/

> <NAME_>
VHL_4CI3_30.pdb

$$$$
