VHL_4IM0_27.pdb
  MOLSOFT 04032206373D

 53 55  0  0  1  0  0  0  0  0999 V2000
   14.8615    1.3416   -8.1350 C   0  0  0  0  0  0  0  0  0  0  0  0
   15.4031   -0.0607   -8.0242 C   0  0  0  0  0  0  0  0  0  0  0  0
   15.9229   -0.6535   -8.9610 O   0  0  0  0  0  0  0  0  0  0  0  0
   15.2614   -0.5731   -6.7571 N   0  0  0  0  0  0  0  0  0  0  0  0
   15.8119   -1.8635   -6.3949 C   0  0  0  0  0  0  0  0  0  0  0  0
   15.0970   -2.3969   -5.1627 C   0  0  0  0  0  0  0  0  0  0  0  0
   13.9595   -2.0425   -4.8779 O   0  0  0  0  0  0  0  0  0  0  0  0
   15.8020   -3.3299   -4.4070 N   0  0  0  0  0  0  0  0  0  0  0  0
   15.2138   -3.9756   -3.2378 C   0  0  2  0  0  0  0  0  0  0  0  0
   15.1780   -2.9919   -2.0589 C   0  0  0  0  0  0  0  0  0  0  0  0
   16.0448   -2.9443   -1.1971 O   0  0  0  0  0  0  0  0  0  0  0  0
   14.1026   -2.1242   -2.1028 N   0  0  0  0  0  0  0  0  0  0  0  0
   13.9111   -1.0457   -1.1526 C   0  0  0  0  0  0  0  0  0  0  0  0
   14.0138    0.3093   -1.8098 C   0  0  0  0  0  0  0  0  0  0  0  0
   13.1312    1.3289   -1.4701 C   0  0  0  0  0  0  0  0  0  0  0  0
   13.2138    2.5735   -2.0709 C   0  0  0  0  0  0  0  0  0  0  0  0
   14.1919    2.8465   -3.0219 C   0  0  0  0  0  0  0  0  0  0  0  0
   14.2631    4.1566   -3.6610 C   0  0  0  0  0  0  0  0  0  0  0  0
   14.2561    5.4364   -3.1185 C   0  0  0  0  0  0  0  0  0  0  0  0
   14.2412    5.8010   -1.6846 C   0  0  0  0  0  0  0  0  0  0  0  0
   14.2648    6.4663   -4.0376 N   0  0  0  0  0  0  0  0  0  0  0  0
   14.3070    5.9724   -5.2538 C   0  0  0  0  0  0  0  0  0  0  0  0
   14.3575    4.2708   -5.3755 S   0  0  0  0  0  0  0  0  0  0  0  0
   15.0943    1.8365   -3.3409 C   0  0  0  0  0  0  0  0  0  0  0  0
   15.0119    0.5936   -2.7379 C   0  0  0  0  0  0  0  0  0  0  0  0
   16.1189   -5.1738   -2.9579 C   0  0  0  0  0  0  0  0  0  0  0  0
   16.9458   -5.3621   -4.2227 C   0  0  1  0  0  0  0  0  0  0  0  0
   16.2694   -6.2041   -5.1582 O   0  0  0  0  0  0  0  0  0  0  0  0
   17.0526   -3.9602   -4.7875 C   0  0  0  0  0  0  0  0  0  0  0  0
   14.3122    1.6301   -7.2350 H   0  0  0  0  0  0  0  0  0  0  0  0
   14.1705    1.4141   -8.9754 H   0  0  0  0  0  0  0  0  0  0  0  0
   15.6935    2.0370   -8.2735 H   0  0  0  0  0  0  0  0  0  0  0  0
   14.7852   -0.0341   -6.0403 H   0  0  0  0  0  0  0  0  0  0  0  0
   15.6921   -2.5664   -7.2256 H   0  0  0  0  0  0  0  0  0  0  0  0
   16.8765   -1.7078   -6.1941 H   0  0  0  0  0  0  0  0  0  0  0  0
   14.1938   -4.2944   -3.4775 H   0  0  0  0  0  0  0  0  0  0  0  0
   13.4867   -2.1571   -2.9120 H   0  0  0  0  0  0  0  0  0  0  0  0
   12.9112   -1.1862   -0.7290 H   0  0  0  0  0  0  0  0  0  0  0  0
   14.6372   -1.1181   -0.3367 H   0  0  0  0  0  0  0  0  0  0  0  0
   12.3581    1.1573   -0.7289 H   0  0  0  0  0  0  0  0  0  0  0  0
   12.4895    3.3336   -1.7947 H   0  0  0  0  0  0  0  0  0  0  0  0
   13.2230    5.7792   -1.2856 H   0  0  0  0  0  0  0  0  0  0  0  0
   14.6390    6.8069   -1.5214 H   0  0  0  0  0  0  0  0  0  0  0  0
   14.8406    5.0918   -1.1108 H   0  0  0  0  0  0  0  0  0  0  0  0
   14.3145    6.6007   -6.1330 H   0  0  0  0  0  0  0  0  0  0  0  0
   15.8896    2.0119   -4.0593 H   0  0  0  0  0  0  0  0  0  0  0  0
   15.7442   -0.1626   -3.0040 H   0  0  0  0  0  0  0  0  0  0  0  0
   16.7844   -4.9739   -2.1159 H   0  0  0  0  0  0  0  0  0  0  0  0
   15.5216   -6.0521   -2.7028 H   0  0  0  0  0  0  0  0  0  0  0  0
   17.9261   -5.8082   -4.0356 H   0  0  0  0  0  0  0  0  0  0  0  0
   16.1849   -7.0825   -4.7464 H   0  0  0  0  0  0  0  0  0  0  0  0
   17.1966   -3.9557   -5.8713 H   0  0  0  0  0  0  0  0  0  0  0  0
   17.8573   -3.3949   -4.3060 H   0  0  0  0  0  0  0  0  0  0  0  0
  1 30  1  0  0  0  0
  1 31  1  0  0  0  0
  1 32  1  0  0  0  0
  1  2  1  0  0  0  0
  2  3  2  0  0  0  0
  2  4  1  0  0  0  0
  4 33  1  0  0  0  0
  4  5  1  0  0  0  0
  5 34  1  0  0  0  0
  5 35  1  0  0  0  0
  5  6  1  0  0  0  0
  6  7  2  0  0  0  0
  6  8  1  0  0  0  0
  8 29  1  0  0  0  0
  9  8  1  0  0  0  0
  9 26  1  0  0  0  0
  9 36  1  0  0  0  0
  9 10  1  0  0  0  0
 10 11  2  0  0  0  0
 10 12  1  0  0  0  0
 12 37  1  0  0  0  0
 12 13  1  0  0  0  0
 13 38  1  0  0  0  0
 13 39  1  0  0  0  0
 13 14  1  0  0  0  0
 14 25  2  0  0  0  0
 14 15  1  0  0  0  0
 15 16  2  0  0  0  0
 15 40  1  0  0  0  0
 16 17  1  0  0  0  0
 16 41  1  0  0  0  0
 17 24  2  0  0  0  0
 17 18  1  0  0  0  0
 18 19  2  0  0  0  0
 18 23  1  0  0  0  0
 19 20  1  0  0  0  0
 19 21  1  0  0  0  0
 20 42  1  0  0  0  0
 20 43  1  0  0  0  0
 20 44  1  0  0  0  0
 21 22  2  0  0  0  0
 22 45  1  0  0  0  0
 22 23  1  0  0  0  0
 24 25  1  0  0  0  0
 24 46  1  0  0  0  0
 25 47  1  0  0  0  0
 27 26  1  0  0  0  0
 26 48  1  0  0  0  0
 26 49  1  0  0  0  0
 27 29  1  0  0  0  0
 27 50  1  0  0  0  0
 27 28  1  0  0  0  0
 28 51  1  0  0  0  0
 29 52  1  0  0  0  0
 29 53  1  0  0  0  0
M  ZZC   1 c1
M  ZZC   2 c2
M  ZZC   3 o1
M  ZZC   4 n1
M  ZZC   5 c3
M  ZZC   6 c4
M  ZZC   7 o2
M  ZZC   8 n2
M  ZZC   9 c5
M  ZZC  10 c6
M  ZZC  11 o3
M  ZZC  12 n3
M  ZZC  13 c7
M  ZZC  14 c8
M  ZZC  15 c9
M  ZZC  16 c10
M  ZZC  17 c11
M  ZZC  18 c12
M  ZZC  19 c13
M  ZZC  20 c14
M  ZZC  21 n4
M  ZZC  22 c15
M  ZZC  23 s1
M  ZZC  24 c16
M  ZZC  25 c17
M  ZZC  26 c18
M  ZZC  27 c19
M  ZZC  28 o4
M  ZZC  29 c20
M  ZZC  30 h11
M  ZZC  31 h12
M  ZZC  32 h13
M  ZZC  33 h01
M  ZZC  34 h31
M  ZZC  35 h32
M  ZZC  36 h51
M  ZZC  37 h02
M  ZZC  38 h71
M  ZZC  39 h72
M  ZZC  40 h91
M  ZZC  41 h101
M  ZZC  42 h141
M  ZZC  43 h142
M  ZZC  44 h143
M  ZZC  45 h151
M  ZZC  46 h161
M  ZZC  47 h171
M  ZZC  48 h181
M  ZZC  49 h182
M  ZZC  50 h191
M  ZZC  51 h41
M  ZZC  52 h201
M  ZZC  53 h202
M  ZZM   1 1
M  ZZI   1 111
M  ZZM   2 3
M  ZZI   2 121
M  ZZM   3 7
M  ZZI   3 81
M  ZZM   4 10
M  ZZI   4 211
M  ZZM   5 1
M  ZZI   5 112
M  ZZM   6 3
M  ZZI   6 121
M  ZZM   7 7
M  ZZI   7 81
M  ZZM   8 10
M  ZZI   8 192
M  ZZM   9 1
M  ZZI   9 113
M  ZZM  10 3
M  ZZI  10 121
M  ZZM  11 7
M  ZZI  11 81
M  ZZM  12 10
M  ZZI  12 211
M  ZZM  13 1
M  ZZI  13 112
M  ZZM  14 37
M  ZZI  14 124
M  ZZM  15 37
M  ZZI  15 125
M  ZZM  16 37
M  ZZI  16 125
M  ZZM  17 37
M  ZZI  17 124
M  ZZM  18 63
M  ZZI  18 104
M  ZZM  19 64
M  ZZI  19 105
M  ZZM  20 1
M  ZZI  20 111
M  ZZM  21 66
M  ZZI  21 222
M  ZZM  22 63
M  ZZI  22 104
M  ZZM  23 44
M  ZZI  23 248
M  ZZM  24 37
M  ZZI  24 125
M  ZZM  25 37
M  ZZI  25 125
M  ZZM  26 1
M  ZZI  26 112
M  ZZM  27 1
M  ZZI  27 113
M  ZZM  28 6
M  ZZI  28 60
M  ZZM  29 1
M  ZZI  29 112
M  ZZM  30 5
M  ZZI  30 1
M  ZZM  31 5
M  ZZI  31 1
M  ZZM  32 5
M  ZZI  32 1
M  ZZM  33 28
M  ZZI  33 11
M  ZZM  34 5
M  ZZI  34 1
M  ZZM  35 5
M  ZZI  35 1
M  ZZM  36 5
M  ZZI  36 1
M  ZZM  37 28
M  ZZI  37 11
M  ZZM  38 5
M  ZZI  38 1
M  ZZM  39 5
M  ZZI  39 1
M  ZZM  40 5
M  ZZI  40 1
M  ZZM  41 5
M  ZZI  41 1
M  ZZM  42 5
M  ZZI  42 1
M  ZZM  43 5
M  ZZI  43 1
M  ZZM  44 5
M  ZZI  44 1
M  ZZM  45 5
M  ZZI  45 1
M  ZZM  46 5
M  ZZI  46 1
M  ZZM  47 5
M  ZZI  47 1
M  ZZM  48 5
M  ZZI  48 1
M  ZZM  49 5
M  ZZI  49 1
M  ZZM  50 5
M  ZZI  50 1
M  ZZM  51 21
M  ZZI  51 20
M  ZZM  52 5
M  ZZI  52 1
M  ZZM  53 5
M  ZZI  53 1
M  END
> <IX>
1

> <NAME>
VHL_4IM0_27.pdb

> <Score>
-15.492924

> <Natom>
53

> <Nflex>
7

> <Hbond>
-4.875739

> <Hphob>
-5.460464

> <VwInt>
-25.503705

> <Dsolv>
15.27997

> <SolEl>
14.153739

> <Eintl>
1.672444

> <RecConf>
ND

> <projPath>
VHL_maps/

> <NAME_>
VHL_4IM0_27.pdb

$$$$
