VHL_2GQG_12.pdb
  MOLSOFT 04032206353D

 65 67  0  0  1  0  0  0  0  0999 V2000
   11.7166   -0.1062   -6.5589 C   0  0  0  0  0  0  0  0  0  0  0  0
   13.0328   -0.8062   -6.3917 C   0  0  0  0  0  0  0  0  0  0  0  0
   13.2465   -1.9052   -6.8735 O   0  0  0  0  0  0  0  0  0  0  0  0
   13.9354   -0.0922   -5.6420 N   0  0  0  0  0  0  0  0  0  0  0  0
   15.2711   -0.6071   -5.3319 C   0  0  1  0  0  0  0  0  0  0  0  0
   16.3392    0.5247   -5.3942 C   0  0  0  0  0  0  0  0  0  0  0  0
   16.3598    1.1206   -6.8141 C   0  0  0  0  0  0  0  0  0  0  0  0
   17.7325   -0.0411   -5.1101 C   0  0  0  0  0  0  0  0  0  0  0  0
   16.0733    1.6619   -4.3912 C   0  0  0  0  0  0  0  0  0  0  0  0
   15.1300   -1.3037   -3.9632 C   0  0  0  0  0  0  0  0  0  0  0  0
   14.5285   -0.7609   -3.0442 O   0  0  0  0  0  0  0  0  0  0  0  0
   15.6787   -2.5811   -3.8081 N   0  0  0  0  0  0  0  0  0  0  0  0
   15.4547   -3.3337   -2.5823 C   0  0  2  0  0  0  0  0  0  0  0  0
   16.4710   -2.9561   -1.5002 C   0  0  0  0  0  0  0  0  0  0  0  0
   17.5942   -2.5425   -1.7539 O   0  0  0  0  0  0  0  0  0  0  0  0
   16.0181   -3.1853   -0.2146 N   0  0  0  0  0  0  0  0  0  0  0  0
   16.8300   -2.8567    0.9416 C   0  0  0  0  0  0  0  0  0  0  0  0
   16.3467   -3.5509    2.1881 C   0  0  0  0  0  0  0  0  0  0  0  0
   17.0290   -4.6507    2.6955 C   0  0  0  0  0  0  0  0  0  0  0  0
   16.5566   -5.3259    3.8070 C   0  0  0  0  0  0  0  0  0  0  0  0
   15.3943   -4.9191    4.4588 C   0  0  0  0  0  0  0  0  0  0  0  0
   14.8862   -5.6544    5.6158 C   0  0  0  0  0  0  0  0  0  0  0  0
   13.6119   -6.1274    5.9211 C   0  0  0  0  0  0  0  0  0  0  0  0
   12.3795   -6.0277    5.1013 C   0  0  0  0  0  0  0  0  0  0  0  0
   13.5083   -6.7920    7.1275 N   0  0  0  0  0  0  0  0  0  0  0  0
   14.6774   -6.8209    7.7243 C   0  0  0  0  0  0  0  0  0  0  0  0
   15.9636   -6.0693    6.8957 S   0  0  0  0  0  0  0  0  0  0  0  0
   14.7307   -3.7981    3.9653 C   0  0  0  0  0  0  0  0  0  0  0  0
   15.1940   -3.1295    2.8437 C   0  0  0  0  0  0  0  0  0  0  0  0
   15.6146   -4.7827   -3.0032 C   0  0  0  0  0  0  0  0  0  0  0  0
   16.6549   -4.7327   -4.1118 C   0  0  1  0  0  0  0  0  0  0  0  0
   16.4578   -5.8032   -5.0386 O   0  0  0  0  0  0  0  0  0  0  0  0
   16.4557   -3.3634   -4.7613 C   0  0  0  0  0  0  0  0  0  0  0  0
   11.8774    0.8851   -6.9880 H   0  0  0  0  0  0  0  0  0  0  0  0
   11.2269   -0.0096   -5.5865 H   0  0  0  0  0  0  0  0  0  0  0  0
   11.0754   -0.6842   -7.2281 H   0  0  0  0  0  0  0  0  0  0  0  0
   13.6180    0.7535   -5.1813 H   0  0  0  0  0  0  0  0  0  0  0  0
   15.5085   -1.3579   -6.0908 H   0  0  0  0  0  0  0  0  0  0  0  0
   17.1534    1.8668   -6.9242 H   0  0  0  0  0  0  0  0  0  0  0  0
   15.4176    1.6180   -7.0650 H   0  0  0  0  0  0  0  0  0  0  0  0
   16.5335    0.3482   -7.5714 H   0  0  0  0  0  0  0  0  0  0  0  0
   17.7975   -0.4540   -4.0981 H   0  0  0  0  0  0  0  0  0  0  0  0
   18.4915    0.7417   -5.1916 H   0  0  0  0  0  0  0  0  0  0  0  0
   17.9966   -0.8450   -5.8041 H   0  0  0  0  0  0  0  0  0  0  0  0
   16.8357    2.4436   -4.4729 H   0  0  0  0  0  0  0  0  0  0  0  0
   16.0954    1.3074   -3.3567 H   0  0  0  0  0  0  0  0  0  0  0  0
   15.1070    2.1465   -4.5583 H   0  0  0  0  0  0  0  0  0  0  0  0
   14.4442   -3.1383   -2.2042 H   0  0  0  0  0  0  0  0  0  0  0  0
   15.0680   -3.5050   -0.0612 H   0  0  0  0  0  0  0  0  0  0  0  0
   17.8738   -3.1152    0.7305 H   0  0  0  0  0  0  0  0  0  0  0  0
   16.7963   -1.7704    1.0772 H   0  0  0  0  0  0  0  0  0  0  0  0
   17.9328   -5.0090    2.2103 H   0  0  0  0  0  0  0  0  0  0  0  0
   17.1054   -6.1986    4.1480 H   0  0  0  0  0  0  0  0  0  0  0  0
   11.4961   -6.2958    5.6879 H   0  0  0  0  0  0  0  0  0  0  0  0
   12.4275   -6.7112    4.2506 H   0  0  0  0  0  0  0  0  0  0  0  0
   12.2200   -5.0161    4.7223 H   0  0  0  0  0  0  0  0  0  0  0  0
   14.8247   -7.2926    8.6854 H   0  0  0  0  0  0  0  0  0  0  0  0
   13.8372   -3.4255    4.4557 H   0  0  0  0  0  0  0  0  0  0  0  0
   14.6414   -2.2684    2.4782 H   0  0  0  0  0  0  0  0  0  0  0  0
   15.9178   -5.4461   -2.1885 H   0  0  0  0  0  0  0  0  0  0  0  0
   14.6676   -5.1717   -3.3903 H   0  0  0  0  0  0  0  0  0  0  0  0
   17.6659   -4.8136   -3.7037 H   0  0  0  0  0  0  0  0  0  0  0  0
   16.3804   -6.6309   -4.5288 H   0  0  0  0  0  0  0  0  0  0  0  0
   15.9527   -3.4094   -5.7285 H   0  0  0  0  0  0  0  0  0  0  0  0
   17.4184   -2.8710   -4.9192 H   0  0  0  0  0  0  0  0  0  0  0  0
  1 34  1  0  0  0  0
  1 35  1  0  0  0  0
  1 36  1  0  0  0  0
  1  2  1  0  0  0  0
  2  3  2  0  0  0  0
  2  4  1  0  0  0  0
  4 37  1  0  0  0  0
  5  4  1  0  0  0  0
  5 38  1  0  0  0  0
  5  6  1  0  0  0  0
  5 10  1  0  0  0  0
  6  7  1  0  0  0  0
  6  8  1  0  0  0  0
  6  9  1  0  0  0  0
  7 39  1  0  0  0  0
  7 40  1  0  0  0  0
  7 41  1  0  0  0  0
  8 42  1  0  0  0  0
  8 43  1  0  0  0  0
  8 44  1  0  0  0  0
  9 45  1  0  0  0  0
  9 46  1  0  0  0  0
  9 47  1  0  0  0  0
 10 11  2  0  0  0  0
 10 12  1  0  0  0  0
 12 33  1  0  0  0  0
 13 12  1  0  0  0  0
 13 30  1  0  0  0  0
 13 48  1  0  0  0  0
 13 14  1  0  0  0  0
 14 15  2  0  0  0  0
 14 16  1  0  0  0  0
 16 49  1  0  0  0  0
 16 17  1  0  0  0  0
 17 50  1  0  0  0  0
 17 51  1  0  0  0  0
 17 18  1  0  0  0  0
 18 19  1  0  0  0  0
 18 29  2  0  0  0  0
 19 52  1  0  0  0  0
 19 20  2  0  0  0  0
 20 53  1  0  0  0  0
 20 21  1  0  0  0  0
 21 28  2  0  0  0  0
 21 22  1  0  0  0  0
 22 23  2  0  0  0  0
 22 27  1  0  0  0  0
 23 24  1  0  0  0  0
 23 25  1  0  0  0  0
 24 54  1  0  0  0  0
 24 55  1  0  0  0  0
 24 56  1  0  0  0  0
 25 26  2  0  0  0  0
 26 57  1  0  0  0  0
 26 27  1  0  0  0  0
 28 58  1  0  0  0  0
 28 29  1  0  0  0  0
 29 59  1  0  0  0  0
 31 30  1  0  0  0  0
 30 60  1  0  0  0  0
 30 61  1  0  0  0  0
 31 33  1  0  0  0  0
 31 62  1  0  0  0  0
 31 32  1  0  0  0  0
 32 63  1  0  0  0  0
 33 64  1  0  0  0  0
 33 65  1  0  0  0  0
M  ZZC   1 c1
M  ZZC   2 c2
M  ZZC   3 o1
M  ZZC   4 n1
M  ZZC   5 c3
M  ZZC   6 c4
M  ZZC   7 c5
M  ZZC   8 c6
M  ZZC   9 c7
M  ZZC  10 c8
M  ZZC  11 o2
M  ZZC  12 n2
M  ZZC  13 c9
M  ZZC  14 c10
M  ZZC  15 o3
M  ZZC  16 n3
M  ZZC  17 c11
M  ZZC  18 c12
M  ZZC  19 c13
M  ZZC  20 c14
M  ZZC  21 c15
M  ZZC  22 c16
M  ZZC  23 c17
M  ZZC  24 c18
M  ZZC  25 n4
M  ZZC  26 c19
M  ZZC  27 s1
M  ZZC  28 c20
M  ZZC  29 c21
M  ZZC  30 c22
M  ZZC  31 c23
M  ZZC  32 o4
M  ZZC  33 c24
M  ZZC  34 h11
M  ZZC  35 h12
M  ZZC  36 h13
M  ZZC  37 h01
M  ZZC  38 h31
M  ZZC  39 h51
M  ZZC  40 h52
M  ZZC  41 h53
M  ZZC  42 h61
M  ZZC  43 h62
M  ZZC  44 h63
M  ZZC  45 h71
M  ZZC  46 h72
M  ZZC  47 h73
M  ZZC  48 h91
M  ZZC  49 h02
M  ZZC  50 h111
M  ZZC  51 h112
M  ZZC  52 h131
M  ZZC  53 h141
M  ZZC  54 h181
M  ZZC  55 h182
M  ZZC  56 h183
M  ZZC  57 h191
M  ZZC  58 h201
M  ZZC  59 h211
M  ZZC  60 h221
M  ZZC  61 h222
M  ZZC  62 h231
M  ZZC  63 h41
M  ZZC  64 h241
M  ZZC  65 h242
M  ZZM   1 1
M  ZZI   1 111
M  ZZM   2 3
M  ZZI   2 121
M  ZZM   3 7
M  ZZI   3 81
M  ZZM   4 10
M  ZZI   4 211
M  ZZM   5 1
M  ZZI   5 113
M  ZZM   6 1
M  ZZI   6 110
M  ZZM   7 1
M  ZZI   7 111
M  ZZM   8 1
M  ZZI   8 111
M  ZZM   9 1
M  ZZI   9 111
M  ZZM  10 3
M  ZZI  10 121
M  ZZM  11 7
M  ZZI  11 81
M  ZZM  12 10
M  ZZI  12 192
M  ZZM  13 1
M  ZZI  13 113
M  ZZM  14 3
M  ZZI  14 121
M  ZZM  15 7
M  ZZI  15 81
M  ZZM  16 10
M  ZZI  16 211
M  ZZM  17 1
M  ZZI  17 112
M  ZZM  18 37
M  ZZI  18 124
M  ZZM  19 37
M  ZZI  19 125
M  ZZM  20 37
M  ZZI  20 125
M  ZZM  21 37
M  ZZI  21 124
M  ZZM  22 63
M  ZZI  22 104
M  ZZM  23 64
M  ZZI  23 105
M  ZZM  24 1
M  ZZI  24 111
M  ZZM  25 66
M  ZZI  25 222
M  ZZM  26 63
M  ZZI  26 104
M  ZZM  27 44
M  ZZI  27 248
M  ZZM  28 37
M  ZZI  28 125
M  ZZM  29 37
M  ZZI  29 125
M  ZZM  30 1
M  ZZI  30 112
M  ZZM  31 1
M  ZZI  31 113
M  ZZM  32 6
M  ZZI  32 60
M  ZZM  33 1
M  ZZI  33 112
M  ZZM  34 5
M  ZZI  34 1
M  ZZM  35 5
M  ZZI  35 1
M  ZZM  36 5
M  ZZI  36 1
M  ZZM  37 28
M  ZZI  37 11
M  ZZM  38 5
M  ZZI  38 1
M  ZZM  39 5
M  ZZI  39 1
M  ZZM  40 5
M  ZZI  40 1
M  ZZM  41 5
M  ZZI  41 1
M  ZZM  42 5
M  ZZI  42 1
M  ZZM  43 5
M  ZZI  43 1
M  ZZM  44 5
M  ZZI  44 1
M  ZZM  45 5
M  ZZI  45 1
M  ZZM  46 5
M  ZZI  46 1
M  ZZM  47 5
M  ZZI  47 1
M  ZZM  48 5
M  ZZI  48 1
M  ZZM  49 28
M  ZZI  49 11
M  ZZM  50 5
M  ZZI  50 1
M  ZZM  51 5
M  ZZI  51 1
M  ZZM  52 5
M  ZZI  52 1
M  ZZM  53 5
M  ZZI  53 1
M  ZZM  54 5
M  ZZI  54 1
M  ZZM  55 5
M  ZZI  55 1
M  ZZM  56 5
M  ZZI  56 1
M  ZZM  57 5
M  ZZI  57 1
M  ZZM  58 5
M  ZZI  58 1
M  ZZM  59 5
M  ZZI  59 1
M  ZZM  60 5
M  ZZI  60 1
M  ZZM  61 5
M  ZZI  61 1
M  ZZM  62 5
M  ZZI  62 1
M  ZZM  63 21
M  ZZI  63 20
M  ZZM  64 5
M  ZZI  64 1
M  ZZM  65 5
M  ZZI  65 1
M  END
> <IX>
1

> <NAME>
VHL_2GQG_12.pdb

> <Score>
-14.430158

> <Natom>
65

> <Nflex>
8

> <Hbond>
-3.015414

> <Hphob>
-6.087802

> <VwInt>
-27.925538

> <Dsolv>
16.740955

> <SolEl>
9.708569

> <Eintl>
2.399719

> <RecConf>
ND

> <projPath>
VHL_maps/

> <NAME_>
VHL_2GQG_12.pdb

$$$$
