VHL_4IM0_30.pdb
  MOLSOFT 04032206383D

 62 64  0  0  1  0  0  0  0  0999 V2000
   17.9989   -7.1432   -5.0888 C   0  0  0  0  0  0  0  0  0  0  0  0
   16.9219   -6.1038   -4.9575 C   0  0  0  0  0  0  0  0  0  0  0  0
   15.8311   -6.2624   -5.4774 O   0  0  0  0  0  0  0  0  0  0  0  0
   17.2857   -5.0184   -4.1878 N   0  0  0  0  0  0  0  0  0  0  0  0
   16.4223   -3.8544   -3.9720 C   0  0  2  0  0  0  0  0  0  0  0  0
   16.8726   -2.7356   -4.9125 C   0  0  0  0  0  0  0  0  0  0  0  0
   18.0613   -2.5334   -5.1230 O   0  0  0  0  0  0  0  0  0  0  0  0
   15.8765   -1.9101   -5.4330 N   0  0  0  0  0  0  0  0  0  0  0  0
   16.1904   -0.8947   -6.4208 C   0  0  2  0  0  0  0  0  0  0  0  0
   16.7687    0.3552   -5.7540 C   0  0  0  0  0  0  0  0  0  0  0  0
   16.4092    0.7480   -4.6520 O   0  0  0  0  0  0  0  0  0  0  0  0
   17.6904    1.0174   -6.5425 N   0  0  0  0  0  0  0  0  0  0  0  0
   18.3594    2.2277   -6.1120 C   0  0  0  0  0  0  0  0  0  0  0  0
   17.6813    3.4677   -6.6349 C   0  0  0  0  0  0  0  0  0  0  0  0
   16.3994    3.8082   -6.2164 C   0  0  0  0  0  0  0  0  0  0  0  0
   15.7769    4.9498   -6.6842 C   0  0  0  0  0  0  0  0  0  0  0  0
   16.4164    5.7953   -7.5835 C   0  0  0  0  0  0  0  0  0  0  0  0
   15.7508    7.0044   -8.0570 C   0  0  0  0  0  0  0  0  0  0  0  0
   14.4597    7.2026   -8.5322 C   0  0  0  0  0  0  0  0  0  0  0  0
   13.4055    6.1816   -8.7226 C   0  0  0  0  0  0  0  0  0  0  0  0
   14.1472    8.5065   -8.8509 N   0  0  0  0  0  0  0  0  0  0  0  0
   15.1926    9.2764   -8.6506 C   0  0  0  0  0  0  0  0  0  0  0  0
   16.5899    8.5087   -8.0482 S   0  0  0  0  0  0  0  0  0  0  0  0
   17.7009    5.4558   -8.0038 C   0  0  0  0  0  0  0  0  0  0  0  0
   18.3245    4.3104   -7.5354 C   0  0  0  0  0  0  0  0  0  0  0  0
   14.8597   -0.6067   -7.0927 C   0  0  0  0  0  0  0  0  0  0  0  0
   13.8255   -0.8513   -6.0022 C   0  0  1  0  0  0  0  0  0  0  0  0
   12.6146   -1.3556   -6.5679 O   0  0  0  0  0  0  0  0  0  0  0  0
   14.4637   -1.8973   -5.0950 C   0  0  0  0  0  0  0  0  0  0  0  0
   16.5363   -3.3044   -2.5476 C   0  0  0  0  0  0  0  0  0  0  0  0
   15.6078   -4.0123   -1.5732 C   0  0  0  0  0  0  0  0  0  0  0  0
   15.7314   -3.4005   -0.1870 C   0  0  0  0  0  0  0  0  0  0  0  0
   18.9872   -6.6780   -5.1512 H   0  0  0  0  0  0  0  0  0  0  0  0
   17.8315   -7.7251   -5.9999 H   0  0  0  0  0  0  0  0  0  0  0  0
   17.9548   -7.8102   -4.2247 H   0  0  0  0  0  0  0  0  0  0  0  0
   18.2592   -4.9404   -3.9191 H   0  0  0  0  0  0  0  0  0  0  0  0
   15.3942   -4.1484   -4.1958 H   0  0  0  0  0  0  0  0  0  0  0  0
   16.9145   -1.2896   -7.1388 H   0  0  0  0  0  0  0  0  0  0  0  0
   17.9716    0.6133   -7.4298 H   0  0  0  0  0  0  0  0  0  0  0  0
   18.4065    2.2606   -5.0180 H   0  0  0  0  0  0  0  0  0  0  0  0
   19.3893    2.1657   -6.4788 H   0  0  0  0  0  0  0  0  0  0  0  0
   15.8711    3.1836   -5.5025 H   0  0  0  0  0  0  0  0  0  0  0  0
   14.7822    5.1834   -6.3162 H   0  0  0  0  0  0  0  0  0  0  0  0
   12.6318    6.5293   -9.4135 H   0  0  0  0  0  0  0  0  0  0  0  0
   12.9170    5.9460   -7.7745 H   0  0  0  0  0  0  0  0  0  0  0  0
   13.8348    5.2576   -9.1167 H   0  0  0  0  0  0  0  0  0  0  0  0
   15.1790   10.3380   -8.8505 H   0  0  0  0  0  0  0  0  0  0  0  0
   18.2345    6.0845   -8.7113 H   0  0  0  0  0  0  0  0  0  0  0  0
   19.3293    4.0825   -7.8794 H   0  0  0  0  0  0  0  0  0  0  0  0
   14.7879    0.4044   -7.5079 H   0  0  0  0  0  0  0  0  0  0  0  0
   14.7023   -1.3068   -7.9205 H   0  0  0  0  0  0  0  0  0  0  0  0
   13.6032    0.0649   -5.4438 H   0  0  0  0  0  0  0  0  0  0  0  0
   12.2582   -0.6796   -7.1723 H   0  0  0  0  0  0  0  0  0  0  0  0
   14.0277   -2.8880   -5.2248 H   0  0  0  0  0  0  0  0  0  0  0  0
   14.3549   -1.6298   -4.0391 H   0  0  0  0  0  0  0  0  0  0  0  0
   17.5711   -3.3772   -2.1946 H   0  0  0  0  0  0  0  0  0  0  0  0
   16.2912   -2.2368   -2.5388 H   0  0  0  0  0  0  0  0  0  0  0  0
   14.5721   -3.9254   -1.9137 H   0  0  0  0  0  0  0  0  0  0  0  0
   15.8443   -5.0779   -1.5413 H   0  0  0  0  0  0  0  0  0  0  0  0
   15.0658   -3.9005    0.5233 H   0  0  0  0  0  0  0  0  0  0  0  0
   15.4728   -2.3403   -0.2024 H   0  0  0  0  0  0  0  0  0  0  0  0
   16.7554   -3.4847    0.1890 H   0  0  0  0  0  0  0  0  0  0  0  0
  1 33  1  0  0  0  0
  1 34  1  0  0  0  0
  1 35  1  0  0  0  0
  1  2  1  0  0  0  0
  2  3  2  0  0  0  0
  2  4  1  0  0  0  0
  4 36  1  0  0  0  0
  5  4  1  0  0  0  0
  5 37  1  0  0  0  0
  5 30  1  0  0  0  0
  5  6  1  0  0  0  0
  6  7  2  0  0  0  0
  6  8  1  0  0  0  0
  8 29  1  0  0  0  0
  9  8  1  0  0  0  0
  9 26  1  0  0  0  0
  9 38  1  0  0  0  0
  9 10  1  0  0  0  0
 10 11  2  0  0  0  0
 10 12  1  0  0  0  0
 12 39  1  0  0  0  0
 12 13  1  0  0  0  0
 13 40  1  0  0  0  0
 13 41  1  0  0  0  0
 13 14  1  0  0  0  0
 14 25  2  0  0  0  0
 14 15  1  0  0  0  0
 15 16  2  0  0  0  0
 15 42  1  0  0  0  0
 16 17  1  0  0  0  0
 16 43  1  0  0  0  0
 17 24  2  0  0  0  0
 17 18  1  0  0  0  0
 18 19  2  0  0  0  0
 18 23  1  0  0  0  0
 19 20  1  0  0  0  0
 19 21  1  0  0  0  0
 20 44  1  0  0  0  0
 20 45  1  0  0  0  0
 20 46  1  0  0  0  0
 21 22  2  0  0  0  0
 22 47  1  0  0  0  0
 22 23  1  0  0  0  0
 24 25  1  0  0  0  0
 24 48  1  0  0  0  0
 25 49  1  0  0  0  0
 27 26  1  0  0  0  0
 26 50  1  0  0  0  0
 26 51  1  0  0  0  0
 27 29  1  0  0  0  0
 27 52  1  0  0  0  0
 27 28  1  0  0  0  0
 28 53  1  0  0  0  0
 29 54  1  0  0  0  0
 29 55  1  0  0  0  0
 30 56  1  0  0  0  0
 30 57  1  0  0  0  0
 30 31  1  0  0  0  0
 31 58  1  0  0  0  0
 31 59  1  0  0  0  0
 31 32  1  0  0  0  0
 32 60  1  0  0  0  0
 32 61  1  0  0  0  0
 32 62  1  0  0  0  0
M  ZZC   1 c1
M  ZZC   2 c2
M  ZZC   3 o1
M  ZZC   4 n1
M  ZZC   5 c3
M  ZZC   6 c4
M  ZZC   7 o2
M  ZZC   8 n2
M  ZZC   9 c5
M  ZZC  10 c6
M  ZZC  11 o3
M  ZZC  12 n3
M  ZZC  13 c7
M  ZZC  14 c8
M  ZZC  15 c9
M  ZZC  16 c10
M  ZZC  17 c11
M  ZZC  18 c12
M  ZZC  19 c13
M  ZZC  20 c14
M  ZZC  21 n4
M  ZZC  22 c15
M  ZZC  23 s1
M  ZZC  24 c16
M  ZZC  25 c17
M  ZZC  26 c18
M  ZZC  27 c19
M  ZZC  28 o4
M  ZZC  29 c20
M  ZZC  30 c21
M  ZZC  31 c22
M  ZZC  32 c23
M  ZZC  33 h11
M  ZZC  34 h12
M  ZZC  35 h13
M  ZZC  36 h01
M  ZZC  37 h31
M  ZZC  38 h51
M  ZZC  39 h02
M  ZZC  40 h71
M  ZZC  41 h72
M  ZZC  42 h91
M  ZZC  43 h101
M  ZZC  44 h141
M  ZZC  45 h142
M  ZZC  46 h143
M  ZZC  47 h151
M  ZZC  48 h161
M  ZZC  49 h171
M  ZZC  50 h181
M  ZZC  51 h182
M  ZZC  52 h191
M  ZZC  53 h41
M  ZZC  54 h201
M  ZZC  55 h202
M  ZZC  56 h211
M  ZZC  57 h212
M  ZZC  58 h221
M  ZZC  59 h222
M  ZZC  60 h231
M  ZZC  61 h232
M  ZZC  62 h233
M  ZZM   1 1
M  ZZI   1 111
M  ZZM   2 3
M  ZZI   2 121
M  ZZM   3 7
M  ZZI   3 81
M  ZZM   4 10
M  ZZI   4 211
M  ZZM   5 1
M  ZZI   5 113
M  ZZM   6 3
M  ZZI   6 121
M  ZZM   7 7
M  ZZI   7 81
M  ZZM   8 10
M  ZZI   8 192
M  ZZM   9 1
M  ZZI   9 113
M  ZZM  10 3
M  ZZI  10 121
M  ZZM  11 7
M  ZZI  11 81
M  ZZM  12 10
M  ZZI  12 211
M  ZZM  13 1
M  ZZI  13 112
M  ZZM  14 37
M  ZZI  14 124
M  ZZM  15 37
M  ZZI  15 125
M  ZZM  16 37
M  ZZI  16 125
M  ZZM  17 37
M  ZZI  17 124
M  ZZM  18 63
M  ZZI  18 104
M  ZZM  19 64
M  ZZI  19 105
M  ZZM  20 1
M  ZZI  20 111
M  ZZM  21 66
M  ZZI  21 222
M  ZZM  22 63
M  ZZI  22 104
M  ZZM  23 44
M  ZZI  23 248
M  ZZM  24 37
M  ZZI  24 125
M  ZZM  25 37
M  ZZI  25 125
M  ZZM  26 1
M  ZZI  26 112
M  ZZM  27 1
M  ZZI  27 113
M  ZZM  28 6
M  ZZI  28 60
M  ZZM  29 1
M  ZZI  29 112
M  ZZM  30 1
M  ZZI  30 112
M  ZZM  31 1
M  ZZI  31 112
M  ZZM  32 1
M  ZZI  32 111
M  ZZM  33 5
M  ZZI  33 1
M  ZZM  34 5
M  ZZI  34 1
M  ZZM  35 5
M  ZZI  35 1
M  ZZM  36 28
M  ZZI  36 11
M  ZZM  37 5
M  ZZI  37 1
M  ZZM  38 5
M  ZZI  38 1
M  ZZM  39 28
M  ZZI  39 11
M  ZZM  40 5
M  ZZI  40 1
M  ZZM  41 5
M  ZZI  41 1
M  ZZM  42 5
M  ZZI  42 1
M  ZZM  43 5
M  ZZI  43 1
M  ZZM  44 5
M  ZZI  44 1
M  ZZM  45 5
M  ZZI  45 1
M  ZZM  46 5
M  ZZI  46 1
M  ZZM  47 5
M  ZZI  47 1
M  ZZM  48 5
M  ZZI  48 1
M  ZZM  49 5
M  ZZI  49 1
M  ZZM  50 5
M  ZZI  50 1
M  ZZM  51 5
M  ZZI  51 1
M  ZZM  52 5
M  ZZI  52 1
M  ZZM  53 21
M  ZZI  53 20
M  ZZM  54 5
M  ZZI  54 1
M  ZZM  55 5
M  ZZI  55 1
M  ZZM  56 5
M  ZZI  56 1
M  ZZM  57 5
M  ZZI  57 1
M  ZZM  58 5
M  ZZI  58 1
M  ZZM  59 5
M  ZZI  59 1
M  ZZM  60 5
M  ZZI  60 1
M  ZZM  61 5
M  ZZI  61 1
M  ZZM  62 5
M  ZZI  62 1
M  END
> <IX>
1

> <NAME>
VHL_4IM0_30.pdb

> <Score>
-5.73308

> <Natom>
62

> <Nflex>
9

> <Hbond>
-5.358649

> <Hphob>
-5.633321

> <VwInt>
-29.352987

> <Dsolv>
23.752544

> <SolEl>
23.731639

> <Eintl>
3.457208

> <RecConf>
ND

> <projPath>
VHL_maps/

> <NAME_>
VHL_4IM0_30.pdb

$$$$
