VHL_5WUK_3.pdb
  MOLSOFT 04032206433D

 65 67  0  0  1  0  0  0  0  0999 V2000
   15.3391   -5.3296   -3.3049 O   0  0  0  0  0  0  0  0  0  0  0  0
   16.4441   -5.1284   -3.7847 C   0  0  0  0  0  0  0  0  0  0  0  0
   17.0334   -3.8849   -3.8651 N   0  0  0  0  0  0  0  0  0  0  0  0
   16.2973   -2.6560   -3.5554 C   0  0  1  0  0  0  0  0  0  0  0  0
   16.5699   -2.0852   -2.1305 C   0  0  0  0  0  0  0  0  0  0  0  0
   18.0063   -1.5664   -1.9665 C   0  0  0  0  0  0  0  0  0  0  0  0
   15.6026   -0.9256   -1.8450 C   0  0  0  0  0  0  0  0  0  0  0  0
   16.3225   -3.1659   -1.0642 C   0  0  0  0  0  0  0  0  0  0  0  0
   16.6626   -1.6926   -4.7023 C   0  0  0  0  0  0  0  0  0  0  0  0
   17.8337   -1.4589   -4.9781 O   0  0  0  0  0  0  0  0  0  0  0  0
   15.6089   -1.1484   -5.4356 N   0  0  0  0  0  0  0  0  0  0  0  0
   15.8537   -0.3738   -6.6431 C   0  0  2  0  0  0  0  0  0  0  0  0
   16.1929    1.0812   -6.3085 C   0  0  0  0  0  0  0  0  0  0  0  0
   15.5207    1.7620   -5.5453 O   0  0  0  0  0  0  0  0  0  0  0  0
   17.3156    1.5509   -6.9628 N   0  0  0  0  0  0  0  0  0  0  0  0
   17.7975    2.9065   -6.7557 C   0  0  0  0  0  0  0  0  0  0  0  0
   19.2322    3.1278   -7.1733 C   0  0  0  0  0  0  0  0  0  0  0  0
   20.1663    2.0985   -7.1622 C   0  0  0  0  0  0  0  0  0  0  0  0
   21.4837    2.3300   -7.5028 C   0  0  0  0  0  0  0  0  0  0  0  0
   21.9226    3.5982   -7.8495 C   0  0  0  0  0  0  0  0  0  0  0  0
   23.3215    3.8173   -8.1797 C   0  0  0  0  0  0  0  0  0  0  0  0
   24.3852    4.2045   -7.3773 C   0  0  0  0  0  0  0  0  0  0  0  0
   24.3340    4.5410   -5.9367 C   0  0  0  0  0  0  0  0  0  0  0  0
   25.6092    4.2531   -8.0140 N   0  0  0  0  0  0  0  0  0  0  0  0
   25.4620    3.9323   -9.2797 C   0  0  0  0  0  0  0  0  0  0  0  0
   23.8749    3.5613   -9.7858 S   0  0  0  0  0  0  0  0  0  0  0  0
   21.0012    4.6377   -7.8521 C   0  0  0  0  0  0  0  0  0  0  0  0
   19.6749    4.4033   -7.5176 C   0  0  0  0  0  0  0  0  0  0  0  0
   14.5458   -0.4673   -7.4096 C   0  0  0  0  0  0  0  0  0  0  0  0
   13.4836   -0.5941   -6.3278 C   0  0  1  0  0  0  0  0  0  0  0  0
   12.3497   -1.3203   -6.8009 O   0  0  0  0  0  0  0  0  0  0  0  0
   14.1890   -1.3762   -5.2319 C   0  0  0  0  0  0  0  0  0  0  0  0
   17.2779   -6.2376   -4.3721 C   0  0  0  0  0  0  0  0  0  0  0  0
   17.9802   -3.8065   -4.2257 H   0  0  0  0  0  0  0  0  0  0  0  0
   15.2371   -2.9133   -3.6149 H   0  0  0  0  0  0  0  0  0  0  0  0
   18.7385   -2.3189   -2.2630 H   0  0  0  0  0  0  0  0  0  0  0  0
   18.2193   -1.2990   -0.9267 H   0  0  0  0  0  0  0  0  0  0  0  0
   18.1905   -0.6691   -2.5644 H   0  0  0  0  0  0  0  0  0  0  0  0
   14.5587   -1.2524   -1.8993 H   0  0  0  0  0  0  0  0  0  0  0  0
   15.7314   -0.1030   -2.5554 H   0  0  0  0  0  0  0  0  0  0  0  0
   15.7590   -0.5120   -0.8434 H   0  0  0  0  0  0  0  0  0  0  0  0
   15.3139   -3.5847   -1.1438 H   0  0  0  0  0  0  0  0  0  0  0  0
   16.4222   -2.7599   -0.0523 H   0  0  0  0  0  0  0  0  0  0  0  0
   17.0363   -3.9910   -1.1447 H   0  0  0  0  0  0  0  0  0  0  0  0
   16.6752   -0.8251   -7.2116 H   0  0  0  0  0  0  0  0  0  0  0  0
   17.8207    0.9327   -7.5919 H   0  0  0  0  0  0  0  0  0  0  0  0
   17.1331    3.5615   -7.3300 H   0  0  0  0  0  0  0  0  0  0  0  0
   17.6849    3.1624   -5.6966 H   0  0  0  0  0  0  0  0  0  0  0  0
   19.8773    1.0902   -6.8873 H   0  0  0  0  0  0  0  0  0  0  0  0
   22.1726    1.4944   -7.5028 H   0  0  0  0  0  0  0  0  0  0  0  0
   25.3043    4.9003   -5.5817 H   0  0  0  0  0  0  0  0  0  0  0  0
   24.0692    3.6622   -5.3447 H   0  0  0  0  0  0  0  0  0  0  0  0
   23.5954    5.3242   -5.7436 H   0  0  0  0  0  0  0  0  0  0  0  0
   26.2931    3.9057   -9.9699 H   0  0  0  0  0  0  0  0  0  0  0  0
   21.3124    5.6441   -8.1163 H   0  0  0  0  0  0  0  0  0  0  0  0
   18.9793    5.2377   -7.5233 H   0  0  0  0  0  0  0  0  0  0  0  0
   14.3611    0.3848   -8.0724 H   0  0  0  0  0  0  0  0  0  0  0  0
   14.5545   -1.3700   -8.0292 H   0  0  0  0  0  0  0  0  0  0  0  0
   13.1575    0.3864   -5.9633 H   0  0  0  0  0  0  0  0  0  0  0  0
   11.9063   -0.7837   -7.4835 H   0  0  0  0  0  0  0  0  0  0  0  0
   13.9795   -2.4485   -5.2962 H   0  0  0  0  0  0  0  0  0  0  0  0
   13.8924   -1.0342   -4.2364 H   0  0  0  0  0  0  0  0  0  0  0  0
   16.7385   -6.6794   -5.2155 H   0  0  0  0  0  0  0  0  0  0  0  0
   17.4523   -7.0032   -3.6133 H   0  0  0  0  0  0  0  0  0  0  0  0
   18.2455   -5.8748   -4.7308 H   0  0  0  0  0  0  0  0  0  0  0  0
  1  2  2  0  0  0  0
  2  3  1  0  0  0  0
  2 33  1  0  0  0  0
  4  3  1  0  0  0  0
  3 34  1  0  0  0  0
  4  5  1  0  0  0  0
  4 35  1  0  0  0  0
  4  9  1  0  0  0  0
  5  6  1  0  0  0  0
  5  7  1  0  0  0  0
  5  8  1  0  0  0  0
  6 36  1  0  0  0  0
  6 37  1  0  0  0  0
  6 38  1  0  0  0  0
  7 39  1  0  0  0  0
  7 40  1  0  0  0  0
  7 41  1  0  0  0  0
  8 42  1  0  0  0  0
  8 43  1  0  0  0  0
  8 44  1  0  0  0  0
  9 10  2  0  0  0  0
  9 11  1  0  0  0  0
 11 32  1  0  0  0  0
 12 11  1  0  0  0  0
 12 29  1  0  0  0  0
 12 45  1  0  0  0  0
 12 13  1  0  0  0  0
 13 14  2  0  0  0  0
 13 15  1  0  0  0  0
 15 46  1  0  0  0  0
 15 16  1  0  0  0  0
 16 47  1  0  0  0  0
 16 48  1  0  0  0  0
 16 17  1  0  0  0  0
 17 18  1  0  0  0  0
 17 28  2  0  0  0  0
 18 49  1  0  0  0  0
 18 19  2  0  0  0  0
 19 50  1  0  0  0  0
 19 20  1  0  0  0  0
 20 27  2  0  0  0  0
 20 21  1  0  0  0  0
 21 22  2  0  0  0  0
 21 26  1  0  0  0  0
 22 23  1  0  0  0  0
 22 24  1  0  0  0  0
 23 51  1  0  0  0  0
 23 52  1  0  0  0  0
 23 53  1  0  0  0  0
 24 25  2  0  0  0  0
 25 54  1  0  0  0  0
 25 26  1  0  0  0  0
 27 55  1  0  0  0  0
 27 28  1  0  0  0  0
 28 56  1  0  0  0  0
 30 29  1  0  0  0  0
 29 57  1  0  0  0  0
 29 58  1  0  0  0  0
 30 32  1  0  0  0  0
 30 59  1  0  0  0  0
 30 31  1  0  0  0  0
 31 60  1  0  0  0  0
 32 61  1  0  0  0  0
 32 62  1  0  0  0  0
 33 63  1  0  0  0  0
 33 64  1  0  0  0  0
 33 65  1  0  0  0  0
M  ZZC   1 o1
M  ZZC   2 c1
M  ZZC   3 n1
M  ZZC   4 c2
M  ZZC   5 c3
M  ZZC   6 c4
M  ZZC   7 c5
M  ZZC   8 c6
M  ZZC   9 c7
M  ZZC  10 o2
M  ZZC  11 n2
M  ZZC  12 c8
M  ZZC  13 c9
M  ZZC  14 o3
M  ZZC  15 n3
M  ZZC  16 c10
M  ZZC  17 c11
M  ZZC  18 c12
M  ZZC  19 c13
M  ZZC  20 c14
M  ZZC  21 c15
M  ZZC  22 c16
M  ZZC  23 c17
M  ZZC  24 n4
M  ZZC  25 c18
M  ZZC  26 s1
M  ZZC  27 c19
M  ZZC  28 c20
M  ZZC  29 c21
M  ZZC  30 c22
M  ZZC  31 o4
M  ZZC  32 c23
M  ZZC  33 c24
M  ZZC  34 h11
M  ZZC  35 h21
M  ZZC  36 h41
M  ZZC  37 h42
M  ZZC  38 h43
M  ZZC  39 h51
M  ZZC  40 h52
M  ZZC  41 h53
M  ZZC  42 h61
M  ZZC  43 h62
M  ZZC  44 h63
M  ZZC  45 h81
M  ZZC  46 h31
M  ZZC  47 h101
M  ZZC  48 h102
M  ZZC  49 h121
M  ZZC  50 h131
M  ZZC  51 h171
M  ZZC  52 h172
M  ZZC  53 h173
M  ZZC  54 h181
M  ZZC  55 h191
M  ZZC  56 h201
M  ZZC  57 h211
M  ZZC  58 h212
M  ZZC  59 h221
M  ZZC  60 h01
M  ZZC  61 h231
M  ZZC  62 h232
M  ZZC  63 h241
M  ZZC  64 h242
M  ZZC  65 h243
M  ZZM   1 7
M  ZZI   1 81
M  ZZM   2 3
M  ZZI   2 121
M  ZZM   3 10
M  ZZI   3 211
M  ZZM   4 1
M  ZZI   4 113
M  ZZM   5 1
M  ZZI   5 110
M  ZZM   6 1
M  ZZI   6 111
M  ZZM   7 1
M  ZZI   7 111
M  ZZM   8 1
M  ZZI   8 111
M  ZZM   9 3
M  ZZI   9 121
M  ZZM  10 7
M  ZZI  10 81
M  ZZM  11 10
M  ZZI  11 192
M  ZZM  12 1
M  ZZI  12 113
M  ZZM  13 3
M  ZZI  13 121
M  ZZM  14 7
M  ZZI  14 81
M  ZZM  15 10
M  ZZI  15 211
M  ZZM  16 1
M  ZZI  16 112
M  ZZM  17 37
M  ZZI  17 124
M  ZZM  18 37
M  ZZI  18 125
M  ZZM  19 37
M  ZZI  19 125
M  ZZM  20 37
M  ZZI  20 124
M  ZZM  21 63
M  ZZI  21 104
M  ZZM  22 64
M  ZZI  22 105
M  ZZM  23 1
M  ZZI  23 111
M  ZZM  24 66
M  ZZI  24 222
M  ZZM  25 63
M  ZZI  25 104
M  ZZM  26 44
M  ZZI  26 248
M  ZZM  27 37
M  ZZI  27 125
M  ZZM  28 37
M  ZZI  28 125
M  ZZM  29 1
M  ZZI  29 112
M  ZZM  30 1
M  ZZI  30 113
M  ZZM  31 6
M  ZZI  31 60
M  ZZM  32 1
M  ZZI  32 112
M  ZZM  33 1
M  ZZI  33 111
M  ZZM  34 28
M  ZZI  34 11
M  ZZM  35 5
M  ZZI  35 1
M  ZZM  36 5
M  ZZI  36 1
M  ZZM  37 5
M  ZZI  37 1
M  ZZM  38 5
M  ZZI  38 1
M  ZZM  39 5
M  ZZI  39 1
M  ZZM  40 5
M  ZZI  40 1
M  ZZM  41 5
M  ZZI  41 1
M  ZZM  42 5
M  ZZI  42 1
M  ZZM  43 5
M  ZZI  43 1
M  ZZM  44 5
M  ZZI  44 1
M  ZZM  45 5
M  ZZI  45 1
M  ZZM  46 28
M  ZZI  46 11
M  ZZM  47 5
M  ZZI  47 1
M  ZZM  48 5
M  ZZI  48 1
M  ZZM  49 5
M  ZZI  49 1
M  ZZM  50 5
M  ZZI  50 1
M  ZZM  51 5
M  ZZI  51 1
M  ZZM  52 5
M  ZZI  52 1
M  ZZM  53 5
M  ZZI  53 1
M  ZZM  54 5
M  ZZI  54 1
M  ZZM  55 5
M  ZZI  55 1
M  ZZM  56 5
M  ZZI  56 1
M  ZZM  57 5
M  ZZI  57 1
M  ZZM  58 5
M  ZZI  58 1
M  ZZM  59 5
M  ZZI  59 1
M  ZZM  60 21
M  ZZI  60 20
M  ZZM  61 5
M  ZZI  61 1
M  ZZM  62 5
M  ZZI  62 1
M  ZZM  63 5
M  ZZI  63 1
M  ZZM  64 5
M  ZZI  64 1
M  ZZM  65 5
M  ZZI  65 1
M  END
> <IX>
1

> <NAME>
VHL_5WUK_3.pdb

> <Score>
-16.086098

> <Natom>
65

> <Nflex>
8

> <Hbond>
-4.872271

> <Hphob>
-6.285423

> <VwInt>
-32.186542

> <Dsolv>
17.485954

> <SolEl>
18.193114

> <Eintl>
4.527671

> <RecConf>
ND

> <projPath>
VHL_maps/

> <NAME_>
VHL_5WUK_3.pdb

$$$$
