VHL_3MXF_26.pdb
  MOLSOFT 04032206373D

 65 67  0  0  1  0  0  0  0  0999 V2000
   17.2502   -6.0263   -4.4449 C   0  0  0  0  0  0  0  0  0  0  0  0
   16.4548   -4.8567   -3.9263 C   0  0  0  0  0  0  0  0  0  0  0  0
   15.3149   -4.9887   -3.5074 O   0  0  0  0  0  0  0  0  0  0  0  0
   17.1265   -3.6512   -3.9799 N   0  0  0  0  0  0  0  0  0  0  0  0
   16.4550   -2.3785   -3.6987 C   0  0  1  0  0  0  0  0  0  0  0  0
   16.7612   -1.7898   -2.2890 C   0  0  0  0  0  0  0  0  0  0  0  0
   16.4497   -2.8342   -1.2021 C   0  0  0  0  0  0  0  0  0  0  0  0
   15.8651   -0.5677   -2.0355 C   0  0  0  0  0  0  0  0  0  0  0  0
   18.2236   -1.3532   -2.1289 C   0  0  0  0  0  0  0  0  0  0  0  0
   16.8305   -1.4562   -4.8806 C   0  0  0  0  0  0  0  0  0  0  0  0
   18.0023   -1.2338   -5.1607 O   0  0  0  0  0  0  0  0  0  0  0  0
   15.7827   -0.9350   -5.6421 N   0  0  0  0  0  0  0  0  0  0  0  0
   15.9963   -0.3325   -6.9614 C   0  0  2  0  0  0  0  0  0  0  0  0
   16.3769    1.1560   -6.9997 C   0  0  0  0  0  0  0  0  0  0  0  0
   16.0895    1.8692   -7.9530 O   0  0  0  0  0  0  0  0  0  0  0  0
   17.2110    1.5742   -5.9814 N   0  0  0  0  0  0  0  0  0  0  0  0
   17.7089    2.9349   -5.8924 C   0  0  0  0  0  0  0  0  0  0  0  0
   19.1493    3.1062   -6.3142 C   0  0  0  0  0  0  0  0  0  0  0  0
   19.7784    4.3292   -6.1042 C   0  0  0  0  0  0  0  0  0  0  0  0
   21.0998    4.5322   -6.4678 C   0  0  0  0  0  0  0  0  0  0  0  0
   21.8419    3.5162   -7.0582 C   0  0  0  0  0  0  0  0  0  0  0  0
   23.2465    3.7142   -7.4095 C   0  0  0  0  0  0  0  0  0  0  0  0
   24.3073    4.2293   -6.6709 C   0  0  0  0  0  0  0  0  0  0  0  0
   24.2784    4.7388   -5.2798 C   0  0  0  0  0  0  0  0  0  0  0  0
   25.5242    4.2442   -7.3225 N   0  0  0  0  0  0  0  0  0  0  0  0
   25.3858    3.7641   -8.5366 C   0  0  0  0  0  0  0  0  0  0  0  0
   23.8113    3.2812   -8.9783 S   0  0  0  0  0  0  0  0  0  0  0  0
   21.2071    2.2986   -7.2825 C   0  0  0  0  0  0  0  0  0  0  0  0
   19.8871    2.0967   -6.9226 C   0  0  0  0  0  0  0  0  0  0  0  0
   14.6706   -0.5683   -7.6674 C   0  0  0  0  0  0  0  0  0  0  0  0
   13.6430   -0.4960   -6.5518 C   0  0  1  0  0  0  0  0  0  0  0  0
   12.4641   -1.2322   -6.8783 O   0  0  0  0  0  0  0  0  0  0  0  0
   14.3667   -1.1521   -5.3933 C   0  0  0  0  0  0  0  0  0  0  0  0
   18.1880   -5.7059   -4.9083 H   0  0  0  0  0  0  0  0  0  0  0  0
   16.6586   -6.5509   -5.2014 H   0  0  0  0  0  0  0  0  0  0  0  0
   17.4723   -6.7111   -3.6232 H   0  0  0  0  0  0  0  0  0  0  0  0
   18.0912   -3.6344   -4.2988 H   0  0  0  0  0  0  0  0  0  0  0  0
   15.3852   -2.5906   -3.7291 H   0  0  0  0  0  0  0  0  0  0  0  0
   16.5731   -2.4160   -0.1979 H   0  0  0  0  0  0  0  0  0  0  0  0
   17.1129   -3.7023   -1.2665 H   0  0  0  0  0  0  0  0  0  0  0  0
   15.4186   -3.1956   -1.2754 H   0  0  0  0  0  0  0  0  0  0  0  0
   16.0492    0.2226   -2.7706 H   0  0  0  0  0  0  0  0  0  0  0  0
   16.0473   -0.1361   -1.0457 H   0  0  0  0  0  0  0  0  0  0  0  0
   14.8024   -0.8227   -2.0966 H   0  0  0  0  0  0  0  0  0  0  0  0
   18.4371   -1.0411   -1.1017 H   0  0  0  0  0  0  0  0  0  0  0  0
   18.4745   -0.5053   -2.7725 H   0  0  0  0  0  0  0  0  0  0  0  0
   18.9061   -2.1699   -2.3636 H   0  0  0  0  0  0  0  0  0  0  0  0
   16.8044   -0.8668   -7.4727 H   0  0  0  0  0  0  0  0  0  0  0  0
   17.5401    0.8940   -5.3032 H   0  0  0  0  0  0  0  0  0  0  0  0
   17.0753    3.5918   -6.4980 H   0  0  0  0  0  0  0  0  0  0  0  0
   17.6030    3.2283   -4.8428 H   0  0  0  0  0  0  0  0  0  0  0  0
   19.2322    5.1474   -5.6439 H   0  0  0  0  0  0  0  0  0  0  0  0
   21.5463    5.5049   -6.2857 H   0  0  0  0  0  0  0  0  0  0  0  0
   23.9708    5.7881   -5.2648 H   0  0  0  0  0  0  0  0  0  0  0  0
   25.2691    4.6718   -4.8207 H   0  0  0  0  0  0  0  0  0  0  0  0
   23.5878    4.1696   -4.6529 H   0  0  0  0  0  0  0  0  0  0  0  0
   26.2163    3.6804   -9.2229 H   0  0  0  0  0  0  0  0  0  0  0  0
   21.7435    1.4707   -7.7323 H   0  0  0  0  0  0  0  0  0  0  0  0
   19.4456    1.1249   -7.1152 H   0  0  0  0  0  0  0  0  0  0  0  0
   14.4506    0.1488   -8.4616 H   0  0  0  0  0  0  0  0  0  0  0  0
   14.6659   -1.5681   -8.1152 H   0  0  0  0  0  0  0  0  0  0  0  0
   13.3743    0.5400   -6.3145 H   0  0  0  0  0  0  0  0  0  0  0  0
   12.0024   -0.7645   -7.5983 H   0  0  0  0  0  0  0  0  0  0  0  0
   14.1596   -2.2275   -5.3573 H   0  0  0  0  0  0  0  0  0  0  0  0
   14.0782   -0.7169   -4.4319 H   0  0  0  0  0  0  0  0  0  0  0  0
  1 34  1  0  0  0  0
  1 35  1  0  0  0  0
  1 36  1  0  0  0  0
  1  2  1  0  0  0  0
  2  3  2  0  0  0  0
  2  4  1  0  0  0  0
  4 37  1  0  0  0  0
  5  4  1  0  0  0  0
  5 38  1  0  0  0  0
  5  6  1  0  0  0  0
  5 10  1  0  0  0  0
  6  7  1  0  0  0  0
  6  8  1  0  0  0  0
  6  9  1  0  0  0  0
  7 39  1  0  0  0  0
  7 40  1  0  0  0  0
  7 41  1  0  0  0  0
  8 42  1  0  0  0  0
  8 43  1  0  0  0  0
  8 44  1  0  0  0  0
  9 45  1  0  0  0  0
  9 46  1  0  0  0  0
  9 47  1  0  0  0  0
 10 11  2  0  0  0  0
 10 12  1  0  0  0  0
 12 33  1  0  0  0  0
 13 12  1  0  0  0  0
 13 30  1  0  0  0  0
 13 48  1  0  0  0  0
 13 14  1  0  0  0  0
 14 15  2  0  0  0  0
 14 16  1  0  0  0  0
 16 49  1  0  0  0  0
 16 17  1  0  0  0  0
 17 50  1  0  0  0  0
 17 51  1  0  0  0  0
 17 18  1  0  0  0  0
 18 19  1  0  0  0  0
 18 29  2  0  0  0  0
 19 52  1  0  0  0  0
 19 20  2  0  0  0  0
 20 53  1  0  0  0  0
 20 21  1  0  0  0  0
 21 28  2  0  0  0  0
 21 22  1  0  0  0  0
 22 23  2  0  0  0  0
 22 27  1  0  0  0  0
 23 24  1  0  0  0  0
 23 25  1  0  0  0  0
 24 54  1  0  0  0  0
 24 55  1  0  0  0  0
 24 56  1  0  0  0  0
 25 26  2  0  0  0  0
 26 57  1  0  0  0  0
 26 27  1  0  0  0  0
 28 58  1  0  0  0  0
 28 29  1  0  0  0  0
 29 59  1  0  0  0  0
 31 30  1  0  0  0  0
 30 60  1  0  0  0  0
 30 61  1  0  0  0  0
 31 33  1  0  0  0  0
 31 62  1  0  0  0  0
 31 32  1  0  0  0  0
 32 63  1  0  0  0  0
 33 64  1  0  0  0  0
 33 65  1  0  0  0  0
M  ZZC   1 c1
M  ZZC   2 c2
M  ZZC   3 o1
M  ZZC   4 n1
M  ZZC   5 c3
M  ZZC   6 c4
M  ZZC   7 c5
M  ZZC   8 c6
M  ZZC   9 c7
M  ZZC  10 c8
M  ZZC  11 o2
M  ZZC  12 n2
M  ZZC  13 c9
M  ZZC  14 c10
M  ZZC  15 o3
M  ZZC  16 n3
M  ZZC  17 c11
M  ZZC  18 c12
M  ZZC  19 c13
M  ZZC  20 c14
M  ZZC  21 c15
M  ZZC  22 c16
M  ZZC  23 c17
M  ZZC  24 c18
M  ZZC  25 n4
M  ZZC  26 c19
M  ZZC  27 s1
M  ZZC  28 c20
M  ZZC  29 c21
M  ZZC  30 c22
M  ZZC  31 c23
M  ZZC  32 o4
M  ZZC  33 c24
M  ZZC  34 h11
M  ZZC  35 h12
M  ZZC  36 h13
M  ZZC  37 h01
M  ZZC  38 h31
M  ZZC  39 h51
M  ZZC  40 h52
M  ZZC  41 h53
M  ZZC  42 h61
M  ZZC  43 h62
M  ZZC  44 h63
M  ZZC  45 h71
M  ZZC  46 h72
M  ZZC  47 h73
M  ZZC  48 h91
M  ZZC  49 h02
M  ZZC  50 h111
M  ZZC  51 h112
M  ZZC  52 h131
M  ZZC  53 h141
M  ZZC  54 h181
M  ZZC  55 h182
M  ZZC  56 h183
M  ZZC  57 h191
M  ZZC  58 h201
M  ZZC  59 h211
M  ZZC  60 h221
M  ZZC  61 h222
M  ZZC  62 h231
M  ZZC  63 h41
M  ZZC  64 h241
M  ZZC  65 h242
M  ZZM   1 1
M  ZZI   1 111
M  ZZM   2 3
M  ZZI   2 121
M  ZZM   3 7
M  ZZI   3 81
M  ZZM   4 10
M  ZZI   4 211
M  ZZM   5 1
M  ZZI   5 113
M  ZZM   6 1
M  ZZI   6 110
M  ZZM   7 1
M  ZZI   7 111
M  ZZM   8 1
M  ZZI   8 111
M  ZZM   9 1
M  ZZI   9 111
M  ZZM  10 3
M  ZZI  10 121
M  ZZM  11 7
M  ZZI  11 81
M  ZZM  12 10
M  ZZI  12 192
M  ZZM  13 1
M  ZZI  13 113
M  ZZM  14 3
M  ZZI  14 121
M  ZZM  15 7
M  ZZI  15 81
M  ZZM  16 10
M  ZZI  16 211
M  ZZM  17 1
M  ZZI  17 112
M  ZZM  18 37
M  ZZI  18 124
M  ZZM  19 37
M  ZZI  19 125
M  ZZM  20 37
M  ZZI  20 125
M  ZZM  21 37
M  ZZI  21 124
M  ZZM  22 63
M  ZZI  22 104
M  ZZM  23 64
M  ZZI  23 105
M  ZZM  24 1
M  ZZI  24 111
M  ZZM  25 66
M  ZZI  25 222
M  ZZM  26 63
M  ZZI  26 104
M  ZZM  27 44
M  ZZI  27 248
M  ZZM  28 37
M  ZZI  28 125
M  ZZM  29 37
M  ZZI  29 125
M  ZZM  30 1
M  ZZI  30 112
M  ZZM  31 1
M  ZZI  31 113
M  ZZM  32 6
M  ZZI  32 60
M  ZZM  33 1
M  ZZI  33 112
M  ZZM  34 5
M  ZZI  34 1
M  ZZM  35 5
M  ZZI  35 1
M  ZZM  36 5
M  ZZI  36 1
M  ZZM  37 28
M  ZZI  37 11
M  ZZM  38 5
M  ZZI  38 1
M  ZZM  39 5
M  ZZI  39 1
M  ZZM  40 5
M  ZZI  40 1
M  ZZM  41 5
M  ZZI  41 1
M  ZZM  42 5
M  ZZI  42 1
M  ZZM  43 5
M  ZZI  43 1
M  ZZM  44 5
M  ZZI  44 1
M  ZZM  45 5
M  ZZI  45 1
M  ZZM  46 5
M  ZZI  46 1
M  ZZM  47 5
M  ZZI  47 1
M  ZZM  48 5
M  ZZI  48 1
M  ZZM  49 28
M  ZZI  49 11
M  ZZM  50 5
M  ZZI  50 1
M  ZZM  51 5
M  ZZI  51 1
M  ZZM  52 5
M  ZZI  52 1
M  ZZM  53 5
M  ZZI  53 1
M  ZZM  54 5
M  ZZI  54 1
M  ZZM  55 5
M  ZZI  55 1
M  ZZM  56 5
M  ZZI  56 1
M  ZZM  57 5
M  ZZI  57 1
M  ZZM  58 5
M  ZZI  58 1
M  ZZM  59 5
M  ZZI  59 1
M  ZZM  60 5
M  ZZI  60 1
M  ZZM  61 5
M  ZZI  61 1
M  ZZM  62 5
M  ZZI  62 1
M  ZZM  63 21
M  ZZI  63 20
M  ZZM  64 5
M  ZZI  64 1
M  ZZM  65 5
M  ZZI  65 1
M  END
> <IX>
1

> <NAME>
VHL_3MXF_26.pdb

> <Score>
-17.79598

> <Natom>
65

> <Nflex>
8

> <Hbond>
-4.946972

> <Hphob>
-6.069327

> <VwInt>
-31.021195

> <Dsolv>
14.556034

> <SolEl>
16.962241

> <Eintl>
4.825666

> <RecConf>
ND

> <projPath>
VHL_maps/

> <NAME_>
VHL_3MXF_26.pdb

$$$$
