VHL_1ERR_6.pdb
  MOLSOFT 04032206363D

 68 70  0  0  1  0  0  0  0  0999 V2000
   15.8186   -6.2628   -5.4765 O   0  0  0  0  0  0  0  0  0  0  0  0
   16.8910   -5.9361   -4.9981 C   0  0  0  0  0  0  0  0  0  0  0  0
   17.1203   -4.7809   -4.2764 N   0  0  0  0  0  0  0  0  0  0  0  0
   16.1179   -3.7326   -4.0213 C   0  0  1  0  0  0  0  0  0  0  0  0
   15.8506   -3.5397   -2.5000 C   0  0  0  0  0  0  0  0  0  0  0  0
   14.7494   -2.5144   -2.2081 C   0  0  0  0  0  0  0  0  0  0  0  0
   15.3612   -4.8783   -1.9418 C   0  0  0  0  0  0  0  0  0  0  0  0
   17.1035   -3.0906   -1.7347 C   0  0  0  0  0  0  0  0  0  0  0  0
   16.6507   -2.5020   -4.7757 C   0  0  0  0  0  0  0  0  0  0  0  0
   17.8514   -2.2584   -4.8094 O   0  0  0  0  0  0  0  0  0  0  0  0
   15.7287   -1.6951   -5.4456 N   0  0  0  0  0  0  0  0  0  0  0  0
   16.1794   -0.7311   -6.4320 C   0  0  2  0  0  0  0  0  0  0  0  0
   16.6387    0.5621   -5.7598 C   0  0  0  0  0  0  0  0  0  0  0  0
   16.1364    0.9894   -4.7286 O   0  0  0  0  0  0  0  0  0  0  0  0
   17.6314    1.2196   -6.4635 N   0  0  0  0  0  0  0  0  0  0  0  0
   18.2004    2.4692   -5.9850 C   0  0  1  0  0  0  0  0  0  0  0  0
   19.4844    2.8111   -6.7385 C   0  0  0  0  0  0  0  0  0  0  0  0
   17.2065    3.6122   -6.0622 C   0  0  0  0  0  0  0  0  0  0  0  0
   16.3688    3.7910   -7.1616 C   0  0  0  0  0  0  0  0  0  0  0  0
   15.4618    4.8369   -7.2094 C   0  0  0  0  0  0  0  0  0  0  0  0
   15.3652    5.7391   -6.1542 C   0  0  0  0  0  0  0  0  0  0  0  0
   14.4340    6.8594   -6.1900 C   0  0  0  0  0  0  0  0  0  0  0  0
   13.4596    7.2622   -5.2831 C   0  0  0  0  0  0  0  0  0  0  0  0
   13.0515    6.5825   -4.0320 C   0  0  0  0  0  0  0  0  0  0  0  0
   12.8230    8.4425   -5.5988 N   0  0  0  0  0  0  0  0  0  0  0  0
   13.2977    8.9097   -6.7303 C   0  0  0  0  0  0  0  0  0  0  0  0
   14.4843    7.9657   -7.5072 S   0  0  0  0  0  0  0  0  0  0  0  0
   16.1988    5.5616   -5.0557 C   0  0  0  0  0  0  0  0  0  0  0  0
   17.1075    4.5193   -5.0127 C   0  0  0  0  0  0  0  0  0  0  0  0
   14.9647   -0.5138   -7.3202 C   0  0  0  0  0  0  0  0  0  0  0  0
   13.7831   -0.6916   -6.3777 C   0  0  1  0  0  0  0  0  0  0  0  0
   12.6507   -1.2462   -7.0431 O   0  0  0  0  0  0  0  0  0  0  0  0
   14.2820   -1.6642   -5.3217 C   0  0  0  0  0  0  0  0  0  0  0  0
   18.1040   -6.8136   -5.1336 C   0  0  0  0  0  0  0  0  0  0  0  0
   18.0770   -4.5847   -4.0049 H   0  0  0  0  0  0  0  0  0  0  0  0
   15.1890   -4.0581   -4.4889 H   0  0  0  0  0  0  0  0  0  0  0  0
   13.8178   -2.7709   -2.7215 H   0  0  0  0  0  0  0  0  0  0  0  0
   15.0523   -1.5039   -2.4957 H   0  0  0  0  0  0  0  0  0  0  0  0
   14.5173   -2.4725   -1.1387 H   0  0  0  0  0  0  0  0  0  0  0  0
   16.1203   -5.6565   -2.0378 H   0  0  0  0  0  0  0  0  0  0  0  0
   14.4688   -5.2322   -2.4680 H   0  0  0  0  0  0  0  0  0  0  0  0
   15.1013   -4.7872   -0.8857 H   0  0  0  0  0  0  0  0  0  0  0  0
   17.4579   -2.1203   -2.0738 H   0  0  0  0  0  0  0  0  0  0  0  0
   17.9294   -3.7962   -1.8712 H   0  0  0  0  0  0  0  0  0  0  0  0
   16.9171   -3.0144   -0.6589 H   0  0  0  0  0  0  0  0  0  0  0  0
   17.0121   -1.1512   -7.0037 H   0  0  0  0  0  0  0  0  0  0  0  0
   18.0469    0.7715   -7.2751 H   0  0  0  0  0  0  0  0  0  0  0  0
   18.4574    2.2953   -4.9333 H   0  0  0  0  0  0  0  0  0  0  0  0
   19.9710    3.6929   -6.3102 H   0  0  0  0  0  0  0  0  0  0  0  0
   19.2934    3.0248   -7.7935 H   0  0  0  0  0  0  0  0  0  0  0  0
   20.1960    1.9810   -6.6990 H   0  0  0  0  0  0  0  0  0  0  0  0
   16.4110    3.0976   -7.9938 H   0  0  0  0  0  0  0  0  0  0  0  0
   14.8197    4.9354   -8.0803 H   0  0  0  0  0  0  0  0  0  0  0  0
   12.0033    6.7969   -3.8012 H   0  0  0  0  0  0  0  0  0  0  0  0
   13.6598    6.9281   -3.1916 H   0  0  0  0  0  0  0  0  0  0  0  0
   13.1558    5.4965   -4.1107 H   0  0  0  0  0  0  0  0  0  0  0  0
   12.9633    9.8430   -7.1515 H   0  0  0  0  0  0  0  0  0  0  0  0
   16.1567    6.2510   -4.2177 H   0  0  0  0  0  0  0  0  0  0  0  0
   17.7425    4.4148   -4.1377 H   0  0  0  0  0  0  0  0  0  0  0  0
   14.9521    0.4637   -7.8136 H   0  0  0  0  0  0  0  0  0  0  0  0
   14.9357   -1.2746   -8.1081 H   0  0  0  0  0  0  0  0  0  0  0  0
   13.4901    0.2609   -5.9214 H   0  0  0  0  0  0  0  0  0  0  0  0
   12.3669   -0.6224   -7.7352 H   0  0  0  0  0  0  0  0  0  0  0  0
   13.8563   -2.6646   -5.4040 H   0  0  0  0  0  0  0  0  0  0  0  0
   14.0194   -1.2718   -4.3405 H   0  0  0  0  0  0  0  0  0  0  0  0
   18.0124   -7.4239   -6.0370 H   0  0  0  0  0  0  0  0  0  0  0  0
   18.1660   -7.4696   -4.2623 H   0  0  0  0  0  0  0  0  0  0  0  0
   19.0165   -6.2148   -5.2124 H   0  0  0  0  0  0  0  0  0  0  0  0
  1  2  2  0  0  0  0
  2  3  1  0  0  0  0
  2 34  1  0  0  0  0
  4  3  1  0  0  0  0
  3 35  1  0  0  0  0
  4  5  1  0  0  0  0
  4 36  1  0  0  0  0
  4  9  1  0  0  0  0
  5  6  1  0  0  0  0
  5  7  1  0  0  0  0
  5  8  1  0  0  0  0
  6 37  1  0  0  0  0
  6 38  1  0  0  0  0
  6 39  1  0  0  0  0
  7 40  1  0  0  0  0
  7 41  1  0  0  0  0
  7 42  1  0  0  0  0
  8 43  1  0  0  0  0
  8 44  1  0  0  0  0
  8 45  1  0  0  0  0
  9 10  2  0  0  0  0
  9 11  1  0  0  0  0
 11 33  1  0  0  0  0
 12 11  1  0  0  0  0
 12 30  1  0  0  0  0
 12 46  1  0  0  0  0
 12 13  1  0  0  0  0
 13 14  2  0  0  0  0
 13 15  1  0  0  0  0
 15 47  1  0  0  0  0
 16 15  1  0  0  0  0
 16 48  1  0  0  0  0
 16 17  1  0  0  0  0
 16 18  1  0  0  0  0
 17 49  1  0  0  0  0
 17 50  1  0  0  0  0
 17 51  1  0  0  0  0
 18 19  1  0  0  0  0
 18 29  2  0  0  0  0
 19 52  1  0  0  0  0
 19 20  2  0  0  0  0
 20 53  1  0  0  0  0
 20 21  1  0  0  0  0
 21 28  2  0  0  0  0
 21 22  1  0  0  0  0
 22 23  2  0  0  0  0
 22 27  1  0  0  0  0
 23 24  1  0  0  0  0
 23 25  1  0  0  0  0
 24 54  1  0  0  0  0
 24 55  1  0  0  0  0
 24 56  1  0  0  0  0
 25 26  2  0  0  0  0
 26 57  1  0  0  0  0
 26 27  1  0  0  0  0
 28 58  1  0  0  0  0
 28 29  1  0  0  0  0
 29 59  1  0  0  0  0
 31 30  1  0  0  0  0
 30 60  1  0  0  0  0
 30 61  1  0  0  0  0
 31 33  1  0  0  0  0
 31 62  1  0  0  0  0
 31 32  1  0  0  0  0
 32 63  1  0  0  0  0
 33 64  1  0  0  0  0
 33 65  1  0  0  0  0
 34 66  1  0  0  0  0
 34 67  1  0  0  0  0
 34 68  1  0  0  0  0
M  ZZC   1 o1
M  ZZC   2 c1
M  ZZC   3 n1
M  ZZC   4 c2
M  ZZC   5 c3
M  ZZC   6 c4
M  ZZC   7 c5
M  ZZC   8 c6
M  ZZC   9 c7
M  ZZC  10 o2
M  ZZC  11 n2
M  ZZC  12 c8
M  ZZC  13 c9
M  ZZC  14 o3
M  ZZC  15 n3
M  ZZC  16 c10
M  ZZC  17 c11
M  ZZC  18 c12
M  ZZC  19 c13
M  ZZC  20 c14
M  ZZC  21 c15
M  ZZC  22 c16
M  ZZC  23 c17
M  ZZC  24 c18
M  ZZC  25 n4
M  ZZC  26 c19
M  ZZC  27 s1
M  ZZC  28 c20
M  ZZC  29 c21
M  ZZC  30 c22
M  ZZC  31 c23
M  ZZC  32 o4
M  ZZC  33 c24
M  ZZC  34 c25
M  ZZC  35 h11
M  ZZC  36 h21
M  ZZC  37 h41
M  ZZC  38 h42
M  ZZC  39 h43
M  ZZC  40 h51
M  ZZC  41 h52
M  ZZC  42 h53
M  ZZC  43 h61
M  ZZC  44 h62
M  ZZC  45 h63
M  ZZC  46 h81
M  ZZC  47 h31
M  ZZC  48 h101
M  ZZC  49 h111
M  ZZC  50 h112
M  ZZC  51 h113
M  ZZC  52 h131
M  ZZC  53 h141
M  ZZC  54 h181
M  ZZC  55 h182
M  ZZC  56 h183
M  ZZC  57 h191
M  ZZC  58 h201
M  ZZC  59 h211
M  ZZC  60 h221
M  ZZC  61 h222
M  ZZC  62 h231
M  ZZC  63 h01
M  ZZC  64 h241
M  ZZC  65 h242
M  ZZC  66 h251
M  ZZC  67 h252
M  ZZC  68 h253
M  ZZM   1 7
M  ZZI   1 81
M  ZZM   2 3
M  ZZI   2 121
M  ZZM   3 10
M  ZZI   3 211
M  ZZM   4 1
M  ZZI   4 113
M  ZZM   5 1
M  ZZI   5 110
M  ZZM   6 1
M  ZZI   6 111
M  ZZM   7 1
M  ZZI   7 111
M  ZZM   8 1
M  ZZI   8 111
M  ZZM   9 3
M  ZZI   9 121
M  ZZM  10 7
M  ZZI  10 81
M  ZZM  11 10
M  ZZI  11 192
M  ZZM  12 1
M  ZZI  12 113
M  ZZM  13 3
M  ZZI  13 121
M  ZZM  14 7
M  ZZI  14 81
M  ZZM  15 10
M  ZZI  15 211
M  ZZM  16 1
M  ZZI  16 113
M  ZZM  17 1
M  ZZI  17 111
M  ZZM  18 37
M  ZZI  18 124
M  ZZM  19 37
M  ZZI  19 125
M  ZZM  20 37
M  ZZI  20 125
M  ZZM  21 37
M  ZZI  21 124
M  ZZM  22 63
M  ZZI  22 104
M  ZZM  23 64
M  ZZI  23 105
M  ZZM  24 1
M  ZZI  24 111
M  ZZM  25 66
M  ZZI  25 222
M  ZZM  26 63
M  ZZI  26 104
M  ZZM  27 44
M  ZZI  27 248
M  ZZM  28 37
M  ZZI  28 125
M  ZZM  29 37
M  ZZI  29 125
M  ZZM  30 1
M  ZZI  30 112
M  ZZM  31 1
M  ZZI  31 113
M  ZZM  32 6
M  ZZI  32 60
M  ZZM  33 1
M  ZZI  33 112
M  ZZM  34 1
M  ZZI  34 111
M  ZZM  35 28
M  ZZI  35 11
M  ZZM  36 5
M  ZZI  36 1
M  ZZM  37 5
M  ZZI  37 1
M  ZZM  38 5
M  ZZI  38 1
M  ZZM  39 5
M  ZZI  39 1
M  ZZM  40 5
M  ZZI  40 1
M  ZZM  41 5
M  ZZI  41 1
M  ZZM  42 5
M  ZZI  42 1
M  ZZM  43 5
M  ZZI  43 1
M  ZZM  44 5
M  ZZI  44 1
M  ZZM  45 5
M  ZZI  45 1
M  ZZM  46 5
M  ZZI  46 1
M  ZZM  47 28
M  ZZI  47 11
M  ZZM  48 5
M  ZZI  48 1
M  ZZM  49 5
M  ZZI  49 1
M  ZZM  50 5
M  ZZI  50 1
M  ZZM  51 5
M  ZZI  51 1
M  ZZM  52 5
M  ZZI  52 1
M  ZZM  53 5
M  ZZI  53 1
M  ZZM  54 5
M  ZZI  54 1
M  ZZM  55 5
M  ZZI  55 1
M  ZZM  56 5
M  ZZI  56 1
M  ZZM  57 5
M  ZZI  57 1
M  ZZM  58 5
M  ZZI  58 1
M  ZZM  59 5
M  ZZI  59 1
M  ZZM  60 5
M  ZZI  60 1
M  ZZM  61 5
M  ZZI  61 1
M  ZZM  62 5
M  ZZI  62 1
M  ZZM  63 21
M  ZZI  63 20
M  ZZM  64 5
M  ZZI  64 1
M  ZZM  65 5
M  ZZI  65 1
M  ZZM  66 5
M  ZZI  66 1
M  ZZM  67 5
M  ZZI  67 1
M  ZZM  68 5
M  ZZI  68 1
M  END
> <IX>
1

> <NAME>
VHL_1ERR_6.pdb

> <Score>
-0.587005

> <Natom>
68

> <Nflex>
8

> <Hbond>
-5.040348

> <Hphob>
-6.986799

> <VwInt>
-26.626424

> <Dsolv>
22.940674

> <SolEl>
25.23293

> <Eintl>
8.02236

> <RecConf>
ND

> <projPath>
VHL_maps/

> <NAME_>
VHL_1ERR_6.pdb

$$$$
