VHL_5T8E_8.pdb
  MOLSOFT 04032206453D

 76 78  0  0  1  0  0  0  0  0999 V2000
   14.1267    8.0653   -7.5878 C   0  0  0  0  0  0  0  0  0  0  0  0
   13.3426    8.5915   -6.3978 C   0  0  0  0  0  0  0  0  0  0  0  0
   12.7752    7.4536   -5.5581 C   0  0  0  0  0  0  0  0  0  0  0  0
   13.7891    6.4696   -5.1742 N   0  0  0  0  0  0  0  0  0  0  0  0
   13.6822    5.8762   -3.9081 C   0  0  0  0  0  0  0  0  0  0  0  0
   12.7989    6.1793   -3.1162 O   0  0  0  0  0  0  0  0  0  0  0  0
   14.7032    4.8266   -3.4981 C   0  0  0  0  0  0  0  0  0  0  0  0
   14.2341    3.3936   -3.8175 C   0  0  2  0  0  0  0  0  0  0  0  0
   14.5085    2.5073   -2.6937 N   0  0  0  0  0  0  0  0  0  0  0  0
   13.6052    2.1598   -1.7039 C   0  0  0  0  0  0  0  0  0  0  0  0
   12.4554    2.5755   -1.6467 O   0  0  0  0  0  0  0  0  0  0  0  0
   14.1912    1.1444   -0.7061 C   0  0  2  0  0  0  0  0  0  0  0  0
   14.1494   -0.2009   -1.2825 N   0  0  0  0  0  0  0  0  0  0  0  0
   14.9982   -0.5843   -2.3183 C   0  0  0  0  0  0  0  0  0  0  0  0
   15.8843    0.1517   -2.7304 O   0  0  0  0  0  0  0  0  0  0  0  0
   14.7351   -1.9418   -2.9644 C   0  0  2  0  0  0  0  0  0  0  0  0
   15.7890   -2.9800   -2.5003 C   0  0  0  0  0  0  0  0  0  0  0  0
   17.1629   -2.7922   -3.1454 C   0  0  0  0  0  0  0  0  0  0  0  0
   15.3153   -4.4130   -2.7484 C   0  0  0  0  0  0  0  0  0  0  0  0
   14.6811   -1.7285   -4.4831 C   0  0  0  0  0  0  0  0  0  0  0  0
   13.5302   -0.9297   -4.8735 N   0  0  0  0  0  0  0  0  0  0  0  0
   12.9109   -1.1159   -6.0905 C   0  0  0  0  0  0  0  0  0  0  0  0
   13.2745   -1.9354   -6.9159 O   0  0  0  0  0  0  0  0  0  0  0  0
   11.7081   -0.2486   -6.3222 C   0  0  0  0  0  0  0  0  0  0  0  0
   13.3929   -1.1056   -0.4410 C   0  0  0  0  0  0  0  0  0  0  0  0
   13.3943   -0.4331    0.9196 C   0  0  1  0  0  0  0  0  0  0  0  0
   14.5984   -0.7569    1.6177 O   0  0  0  0  0  0  0  0  0  0  0  0
   13.3710    1.0469    0.5812 C   0  0  0  0  0  0  0  0  0  0  0  0
   14.8824    2.8070   -5.0635 C   0  0  0  0  0  0  0  0  0  0  0  0
   16.2564    2.5564   -5.1343 C   0  0  0  0  0  0  0  0  0  0  0  0
   16.8193    1.9443   -6.2424 C   0  0  0  0  0  0  0  0  0  0  0  0
   16.0275    1.5804   -7.3141 C   0  0  0  0  0  0  0  0  0  0  0  0
   14.6740    1.8506   -7.2813 C   0  0  0  0  0  0  0  0  0  0  0  0
   14.1114    2.4499   -6.1673 C   0  0  0  0  0  0  0  0  0  0  0  0
   14.6520    5.9960   -6.2607 C   0  0  0  0  0  0  0  0  0  0  0  0
   15.2205    7.1253   -7.1091 C   0  0  0  0  0  0  0  0  0  0  0  0
   13.4557    7.5402   -8.2771 H   0  0  0  0  0  0  0  0  0  0  0  0
   14.5661    8.8993   -8.1437 H   0  0  0  0  0  0  0  0  0  0  0  0
   13.9973    9.2125   -5.7766 H   0  0  0  0  0  0  0  0  0  0  0  0
   12.5355    9.2361   -6.7533 H   0  0  0  0  0  0  0  0  0  0  0  0
   12.2784    7.8604   -4.6721 H   0  0  0  0  0  0  0  0  0  0  0  0
   12.0103    6.9214   -6.1275 H   0  0  0  0  0  0  0  0  0  0  0  0
   15.6916    5.0630   -3.9003 H   0  0  0  0  0  0  0  0  0  0  0  0
   14.8130    4.9433   -2.4141 H   0  0  0  0  0  0  0  0  0  0  0  0
   13.1484    3.4002   -3.9549 H   0  0  0  0  0  0  0  0  0  0  0  0
   15.4079    2.0300   -2.6841 H   0  0  0  0  0  0  0  0  0  0  0  0
   15.2349    1.4016   -0.4866 H   0  0  0  0  0  0  0  0  0  0  0  0
   13.7434   -2.2866   -2.6540 H   0  0  0  0  0  0  0  0  0  0  0  0
   15.9259   -2.8708   -1.4189 H   0  0  0  0  0  0  0  0  0  0  0  0
   17.1388   -2.9572   -4.2270 H   0  0  0  0  0  0  0  0  0  0  0  0
   17.8753   -3.5059   -2.7268 H   0  0  0  0  0  0  0  0  0  0  0  0
   17.5666   -1.7935   -2.9610 H   0  0  0  0  0  0  0  0  0  0  0  0
   16.0401   -5.1377   -2.3663 H   0  0  0  0  0  0  0  0  0  0  0  0
   15.1759   -4.6213   -3.8127 H   0  0  0  0  0  0  0  0  0  0  0  0
   14.3684   -4.6084   -2.2418 H   0  0  0  0  0  0  0  0  0  0  0  0
   15.5656   -1.2080   -4.8653 H   0  0  0  0  0  0  0  0  0  0  0  0
   14.6238   -2.6895   -5.0010 H   0  0  0  0  0  0  0  0  0  0  0  0
   13.2731   -0.1276   -4.3079 H   0  0  0  0  0  0  0  0  0  0  0  0
   10.8260   -0.8884   -6.4105 H   0  0  0  0  0  0  0  0  0  0  0  0
   11.8380    0.3167   -7.2481 H   0  0  0  0  0  0  0  0  0  0  0  0
   11.5540    0.4476   -5.4957 H   0  0  0  0  0  0  0  0  0  0  0  0
   12.3808   -1.1673   -0.8522 H   0  0  0  0  0  0  0  0  0  0  0  0
   13.8513   -2.0982   -0.4189 H   0  0  0  0  0  0  0  0  0  0  0  0
   12.5547   -0.7560    1.5382 H   0  0  0  0  0  0  0  0  0  0  0  0
   14.5706   -0.2976    2.4754 H   0  0  0  0  0  0  0  0  0  0  0  0
   13.7999    1.6717    1.3713 H   0  0  0  0  0  0  0  0  0  0  0  0
   12.3380    1.3723    0.4307 H   0  0  0  0  0  0  0  0  0  0  0  0
   16.9064    2.8157   -4.3041 H   0  0  0  0  0  0  0  0  0  0  0  0
   17.8846    1.7342   -6.2648 H   0  0  0  0  0  0  0  0  0  0  0  0
   16.4655    1.0794   -8.1717 H   0  0  0  0  0  0  0  0  0  0  0  0
   14.0461    1.5743   -8.1228 H   0  0  0  0  0  0  0  0  0  0  0  0
   13.0448    2.6269   -6.1669 H   0  0  0  0  0  0  0  0  0  0  0  0
   15.4779    5.3989   -5.8794 H   0  0  0  0  0  0  0  0  0  0  0  0
   14.0415    5.3385   -6.8886 H   0  0  0  0  0  0  0  0  0  0  0  0
   15.7584    6.7107   -7.9678 H   0  0  0  0  0  0  0  0  0  0  0  0
   15.9486    7.6923   -6.5185 H   0  0  0  0  0  0  0  0  0  0  0  0
  1 37  1  0  0  0  0
  1 38  1  0  0  0  0
  1  2  1  0  0  0  0
  1 36  1  0  0  0  0
  2 39  1  0  0  0  0
  2 40  1  0  0  0  0
  2  3  1  0  0  0  0
  3 41  1  0  0  0  0
  3 42  1  0  0  0  0
  3  4  1  0  0  0  0
  4 35  1  0  0  0  0
  4  5  1  0  0  0  0
  5  6  2  0  0  0  0
  5  7  1  0  0  0  0
  7 43  1  0  0  0  0
  7 44  1  0  0  0  0
  8  7  1  0  0  0  0
  8 45  1  0  0  0  0
  8 29  1  0  0  0  0
  8  9  1  0  0  0  0
  9 46  1  0  0  0  0
  9 10  1  0  0  0  0
 10 11  2  0  0  0  0
 12 10  1  0  0  0  0
 12 47  1  0  0  0  0
 12 28  1  0  0  0  0
 12 13  1  0  0  0  0
 13 25  1  0  0  0  0
 13 14  1  0  0  0  0
 14 15  2  0  0  0  0
 16 14  1  0  0  0  0
 16 48  1  0  0  0  0
 16 17  1  0  0  0  0
 16 20  1  0  0  0  0
 17 49  1  0  0  0  0
 17 19  1  0  0  0  0
 17 18  1  0  0  0  0
 18 50  1  0  0  0  0
 18 51  1  0  0  0  0
 18 52  1  0  0  0  0
 19 53  1  0  0  0  0
 19 54  1  0  0  0  0
 19 55  1  0  0  0  0
 20 56  1  0  0  0  0
 20 57  1  0  0  0  0
 20 21  1  0  0  0  0
 21 58  1  0  0  0  0
 21 22  1  0  0  0  0
 22 23  2  0  0  0  0
 22 24  1  0  0  0  0
 24 59  1  0  0  0  0
 24 60  1  0  0  0  0
 24 61  1  0  0  0  0
 26 25  1  0  0  0  0
 25 62  1  0  0  0  0
 25 63  1  0  0  0  0
 26 28  1  0  0  0  0
 26 64  1  0  0  0  0
 26 27  1  0  0  0  0
 27 65  1  0  0  0  0
 28 66  1  0  0  0  0
 28 67  1  0  0  0  0
 29 30  1  0  0  0  0
 29 34  2  0  0  0  0
 30 68  1  0  0  0  0
 30 31  2  0  0  0  0
 31 69  1  0  0  0  0
 31 32  1  0  0  0  0
 32 70  1  0  0  0  0
 32 33  2  0  0  0  0
 33 71  1  0  0  0  0
 33 34  1  0  0  0  0
 34 72  1  0  0  0  0
 35 73  1  0  0  0  0
 35 74  1  0  0  0  0
 35 36  1  0  0  0  0
 36 75  1  0  0  0  0
 36 76  1  0  0  0  0
M  ZZC   1 c1
M  ZZC   2 c2
M  ZZC   3 c3
M  ZZC   4 n1
M  ZZC   5 c4
M  ZZC   6 o1
M  ZZC   7 c5
M  ZZC   8 c6
M  ZZC   9 n2
M  ZZC  10 c7
M  ZZC  11 o2
M  ZZC  12 c8
M  ZZC  13 n3
M  ZZC  14 c9
M  ZZC  15 o3
M  ZZC  16 c10
M  ZZC  17 c11
M  ZZC  18 c12
M  ZZC  19 c13
M  ZZC  20 c14
M  ZZC  21 n4
M  ZZC  22 c15
M  ZZC  23 o4
M  ZZC  24 c16
M  ZZC  25 c17
M  ZZC  26 c18
M  ZZC  27 o5
M  ZZC  28 c19
M  ZZC  29 c20
M  ZZC  30 c21
M  ZZC  31 c22
M  ZZC  32 c23
M  ZZC  33 c24
M  ZZC  34 c25
M  ZZC  35 c26
M  ZZC  36 c27
M  ZZC  37 h11
M  ZZC  38 h12
M  ZZC  39 h21
M  ZZC  40 h22
M  ZZC  41 h31
M  ZZC  42 h32
M  ZZC  43 h51
M  ZZC  44 h52
M  ZZC  45 h61
M  ZZC  46 h01
M  ZZC  47 h81
M  ZZC  48 h101
M  ZZC  49 h111
M  ZZC  50 h121
M  ZZC  51 h122
M  ZZC  52 h123
M  ZZC  53 h131
M  ZZC  54 h132
M  ZZC  55 h133
M  ZZC  56 h141
M  ZZC  57 h142
M  ZZC  58 h41
M  ZZC  59 h161
M  ZZC  60 h162
M  ZZC  61 h163
M  ZZC  62 h171
M  ZZC  63 h172
M  ZZC  64 h181
M  ZZC  65 h02
M  ZZC  66 h191
M  ZZC  67 h192
M  ZZC  68 h211
M  ZZC  69 h221
M  ZZC  70 h231
M  ZZC  71 h241
M  ZZC  72 h251
M  ZZC  73 h261
M  ZZC  74 h262
M  ZZC  75 h271
M  ZZC  76 h272
M  ZZM   1 1
M  ZZI   1 112
M  ZZM   2 1
M  ZZI   2 112
M  ZZM   3 1
M  ZZI   3 112
M  ZZM   4 10
M  ZZI   4 192
M  ZZM   5 3
M  ZZI   5 121
M  ZZM   6 7
M  ZZI   6 81
M  ZZM   7 1
M  ZZI   7 112
M  ZZM   8 1
M  ZZI   8 113
M  ZZM   9 10
M  ZZI   9 211
M  ZZM  10 3
M  ZZI  10 121
M  ZZM  11 7
M  ZZI  11 81
M  ZZM  12 1
M  ZZI  12 113
M  ZZM  13 10
M  ZZI  13 192
M  ZZM  14 3
M  ZZI  14 121
M  ZZM  15 7
M  ZZI  15 81
M  ZZM  16 1
M  ZZI  16 113
M  ZZM  17 1
M  ZZI  17 113
M  ZZM  18 1
M  ZZI  18 111
M  ZZM  19 1
M  ZZI  19 111
M  ZZM  20 1
M  ZZI  20 112
M  ZZM  21 10
M  ZZI  21 211
M  ZZM  22 3
M  ZZI  22 121
M  ZZM  23 7
M  ZZI  23 81
M  ZZM  24 1
M  ZZI  24 111
M  ZZM  25 1
M  ZZI  25 112
M  ZZM  26 1
M  ZZI  26 113
M  ZZM  27 6
M  ZZI  27 60
M  ZZM  28 1
M  ZZI  28 112
M  ZZM  29 37
M  ZZI  29 124
M  ZZM  30 37
M  ZZI  30 125
M  ZZM  31 37
M  ZZI  31 125
M  ZZM  32 37
M  ZZI  32 125
M  ZZM  33 37
M  ZZI  33 125
M  ZZM  34 37
M  ZZI  34 125
M  ZZM  35 1
M  ZZI  35 112
M  ZZM  36 1
M  ZZI  36 112
M  ZZM  37 5
M  ZZI  37 1
M  ZZM  38 5
M  ZZI  38 1
M  ZZM  39 5
M  ZZI  39 1
M  ZZM  40 5
M  ZZI  40 1
M  ZZM  41 5
M  ZZI  41 1
M  ZZM  42 5
M  ZZI  42 1
M  ZZM  43 5
M  ZZI  43 1
M  ZZM  44 5
M  ZZI  44 1
M  ZZM  45 5
M  ZZI  45 1
M  ZZM  46 28
M  ZZI  46 11
M  ZZM  47 5
M  ZZI  47 1
M  ZZM  48 5
M  ZZI  48 1
M  ZZM  49 5
M  ZZI  49 1
M  ZZM  50 5
M  ZZI  50 1
M  ZZM  51 5
M  ZZI  51 1
M  ZZM  52 5
M  ZZI  52 1
M  ZZM  53 5
M  ZZI  53 1
M  ZZM  54 5
M  ZZI  54 1
M  ZZM  55 5
M  ZZI  55 1
M  ZZM  56 5
M  ZZI  56 1
M  ZZM  57 5
M  ZZI  57 1
M  ZZM  58 28
M  ZZI  58 11
M  ZZM  59 5
M  ZZI  59 1
M  ZZM  60 5
M  ZZI  60 1
M  ZZM  61 5
M  ZZI  61 1
M  ZZM  62 5
M  ZZI  62 1
M  ZZM  63 5
M  ZZI  63 1
M  ZZM  64 5
M  ZZI  64 1
M  ZZM  65 21
M  ZZI  65 20
M  ZZM  66 5
M  ZZI  66 1
M  ZZM  67 5
M  ZZI  67 1
M  ZZM  68 5
M  ZZI  68 1
M  ZZM  69 5
M  ZZI  69 1
M  ZZM  70 5
M  ZZI  70 1
M  ZZM  71 5
M  ZZI  71 1
M  ZZM  72 5
M  ZZI  72 1
M  ZZM  73 5
M  ZZI  73 1
M  ZZM  74 5
M  ZZI  74 1
M  ZZM  75 5
M  ZZI  75 1
M  ZZM  76 5
M  ZZI  76 1
M  END
> <IX>
1

> <NAME>
VHL_5T8E_8.pdb

> <Score>
-9.833756

> <Natom>
76

> <Nflex>
12

> <Hbond>
-4.005587

> <Hphob>
-7.545191

> <VwInt>
-29.551219

> <Dsolv>
18.000073

> <SolEl>
13.571974

> <Eintl>
8.748864

> <RecConf>
ND

> <projPath>
VHL_maps/

> <NAME_>
VHL_5T8E_8.pdb

$$$$
