VHL_5F1H_5.pdb
  MOLSOFT 04032206423D

 70 73  0  0  1  0  0  0  0  0999 V2000
   18.7448   -5.3893   -5.9357 F   0  0  0  0  0  0  0  0  0  0  0  0
   17.7021   -5.9700   -5.2194 C   0  0  0  0  0  0  0  0  0  0  0  0
   16.8219   -5.0271   -4.4630 C   0  0  0  0  0  0  0  0  0  0  0  0
   15.7520   -5.3892   -3.9954 O   0  0  0  0  0  0  0  0  0  0  0  0
   17.3031   -3.7380   -4.3645 N   0  0  0  0  0  0  0  0  0  0  0  0
   16.4613   -2.6157   -3.9301 C   0  0  1  0  0  0  0  0  0  0  0  0
   16.6649   -2.1755   -2.4475 C   0  0  0  0  0  0  0  0  0  0  0  0
   18.0658   -1.6047   -2.1895 C   0  0  0  0  0  0  0  0  0  0  0  0
   15.6355   -1.1003   -2.0665 C   0  0  0  0  0  0  0  0  0  0  0  0
   16.4435   -3.3695   -1.5047 C   0  0  0  0  0  0  0  0  0  0  0  0
   16.7432   -1.5110   -4.9696 C   0  0  0  0  0  0  0  0  0  0  0  0
   17.8935   -1.1967   -5.2528 O   0  0  0  0  0  0  0  0  0  0  0  0
   15.6415   -0.9407   -5.6098 N   0  0  0  0  0  0  0  0  0  0  0  0
   15.8061   -0.0977   -6.7881 C   0  0  2  0  0  0  0  0  0  0  0  0
   16.1194    1.3581   -6.4220 C   0  0  0  0  0  0  0  0  0  0  0  0
   15.3189    2.0920   -5.8583 O   0  0  0  0  0  0  0  0  0  0  0  0
   17.4014    1.7433   -6.7626 N   0  0  0  0  0  0  0  0  0  0  0  0
   17.9283    3.0653   -6.4682 C   0  0  0  0  0  0  0  0  0  0  0  0
   19.3312    3.2967   -6.9876 C   0  0  0  0  0  0  0  0  0  0  0  0
   20.2775    2.2815   -7.0407 C   0  0  0  0  0  0  0  0  0  0  0  0
   19.9329    1.0201   -6.6125 O   0  0  0  0  0  0  0  0  0  0  0  0
   21.5632    2.4830   -7.4984 C   0  0  0  0  0  0  0  0  0  0  0  0
   21.9704    3.7443   -7.8932 C   0  0  0  0  0  0  0  0  0  0  0  0
   23.3458    3.9436   -8.3176 C   0  0  0  0  0  0  0  0  0  0  0  0
   24.4780    4.2455   -7.5746 C   0  0  0  0  0  0  0  0  0  0  0  0
   24.5399    4.5053   -6.1182 C   0  0  0  0  0  0  0  0  0  0  0  0
   25.6558    4.2776   -8.2939 N   0  0  0  0  0  0  0  0  0  0  0  0
   25.4079    4.0214   -9.5589 C   0  0  0  0  0  0  0  0  0  0  0  0
   23.7755    3.7347   -9.9664 S   0  0  0  0  0  0  0  0  0  0  0  0
   21.0485    4.7848   -7.8389 C   0  0  0  0  0  0  0  0  0  0  0  0
   19.7486    4.5632   -7.3957 C   0  0  0  0  0  0  0  0  0  0  0  0
   14.4716   -0.2209   -7.5042 C   0  0  0  0  0  0  0  0  0  0  0  0
   13.4575   -0.4435   -6.3935 C   0  0  1  0  0  0  0  0  0  0  0  0
   12.3381   -1.2043   -6.8501 O   0  0  0  0  0  0  0  0  0  0  0  0
   14.2401   -1.2387   -5.3642 C   0  0  0  0  0  0  0  0  0  0  0  0
   18.0081   -7.3372   -4.6739 C   0  0  0  0  0  0  0  0  0  0  0  0
   17.1221   -7.2069   -5.8674 C   0  0  0  0  0  0  0  0  0  0  0  0
   18.2277   -3.5424   -4.7420 H   0  0  0  0  0  0  0  0  0  0  0  0
   15.4291   -2.9570   -4.0330 H   0  0  0  0  0  0  0  0  0  0  0  0
   18.2203   -1.3864   -1.1281 H   0  0  0  0  0  0  0  0  0  0  0  0
   18.2364   -0.6704   -2.7321 H   0  0  0  0  0  0  0  0  0  0  0  0
   18.8403   -2.3101   -2.4878 H   0  0  0  0  0  0  0  0  0  0  0  0
   15.7407   -0.2078   -2.6920 H   0  0  0  0  0  0  0  0  0  0  0  0
   15.7594   -0.7776   -1.0275 H   0  0  0  0  0  0  0  0  0  0  0  0
   14.6080   -1.4562   -2.1897 H   0  0  0  0  0  0  0  0  0  0  0  0
   16.5115   -3.0696   -0.4540 H   0  0  0  0  0  0  0  0  0  0  0  0
   17.1889   -4.1524   -1.6583 H   0  0  0  0  0  0  0  0  0  0  0  0
   15.4549   -3.8179   -1.6494 H   0  0  0  0  0  0  0  0  0  0  0  0
   16.6111   -0.4963   -7.4170 H   0  0  0  0  0  0  0  0  0  0  0  0
   18.0542    1.0370   -7.0975 H   0  0  0  0  0  0  0  0  0  0  0  0
   17.2345    3.7931   -6.9034 H   0  0  0  0  0  0  0  0  0  0  0  0
   17.9117    3.1999   -5.3813 H   0  0  0  0  0  0  0  0  0  0  0  0
   20.3807    0.3910   -7.2063 H   0  0  0  0  0  0  0  0  0  0  0  0
   22.2556    1.6504   -7.5337 H   0  0  0  0  0  0  0  0  0  0  0  0
   23.9561    5.3927   -5.8578 H   0  0  0  0  0  0  0  0  0  0  0  0
   25.5704    4.6710   -5.7908 H   0  0  0  0  0  0  0  0  0  0  0  0
   24.1458    3.6563   -5.5540 H   0  0  0  0  0  0  0  0  0  0  0  0
   26.1871    3.9931  -10.3071 H   0  0  0  0  0  0  0  0  0  0  0  0
   21.3399    5.7857   -8.1435 H   0  0  0  0  0  0  0  0  0  0  0  0
   19.0558    5.3994   -7.3669 H   0  0  0  0  0  0  0  0  0  0  0  0
   14.2208    0.6423   -8.1300 H   0  0  0  0  0  0  0  0  0  0  0  0
   14.5014   -1.1014   -8.1529 H   0  0  0  0  0  0  0  0  0  0  0  0
   13.1015    0.5035   -5.9732 H   0  0  0  0  0  0  0  0  0  0  0  0
   11.8749   -0.6894   -7.5361 H   0  0  0  0  0  0  0  0  0  0  0  0
   14.0681   -2.3141   -5.4692 H   0  0  0  0  0  0  0  0  0  0  0  0
   13.9668   -0.9524   -4.3460 H   0  0  0  0  0  0  0  0  0  0  0  0
   18.9996   -7.7328   -4.8463 H   0  0  0  0  0  0  0  0  0  0  0  0
   17.5486   -7.6388   -3.7432 H   0  0  0  0  0  0  0  0  0  0  0  0
   16.0731   -7.4273   -5.7365 H   0  0  0  0  0  0  0  0  0  0  0  0
   17.5302   -7.5473   -6.8077 H   0  0  0  0  0  0  0  0  0  0  0  0
  2  1  1  0  0  0  0
  2 36  1  0  0  0  0
  2  3  1  0  0  0  0
  2 37  1  0  0  0  0
  3  4  2  0  0  0  0
  3  5  1  0  0  0  0
  5 38  1  0  0  0  0
  6  5  1  0  0  0  0
  6 39  1  0  0  0  0
  6  7  1  0  0  0  0
  6 11  1  0  0  0  0
  7  8  1  0  0  0  0
  7  9  1  0  0  0  0
  7 10  1  0  0  0  0
  8 40  1  0  0  0  0
  8 41  1  0  0  0  0
  8 42  1  0  0  0  0
  9 43  1  0  0  0  0
  9 44  1  0  0  0  0
  9 45  1  0  0  0  0
 10 46  1  0  0  0  0
 10 47  1  0  0  0  0
 10 48  1  0  0  0  0
 11 12  2  0  0  0  0
 11 13  1  0  0  0  0
 13 35  1  0  0  0  0
 14 13  1  0  0  0  0
 14 32  1  0  0  0  0
 14 49  1  0  0  0  0
 14 15  1  0  0  0  0
 15 16  2  0  0  0  0
 15 17  1  0  0  0  0
 17 50  1  0  0  0  0
 17 18  1  0  0  0  0
 18 51  1  0  0  0  0
 18 52  1  0  0  0  0
 18 19  1  0  0  0  0
 19 20  2  0  0  0  0
 19 31  1  0  0  0  0
 20 21  1  0  0  0  0
 20 22  1  0  0  0  0
 21 53  1  0  0  0  0
 22 54  1  0  0  0  0
 22 23  2  0  0  0  0
 23 30  1  0  0  0  0
 23 24  1  0  0  0  0
 24 25  2  0  0  0  0
 24 29  1  0  0  0  0
 25 26  1  0  0  0  0
 25 27  1  0  0  0  0
 26 55  1  0  0  0  0
 26 56  1  0  0  0  0
 26 57  1  0  0  0  0
 27 28  2  0  0  0  0
 28 58  1  0  0  0  0
 28 29  1  0  0  0  0
 30 59  1  0  0  0  0
 30 31  2  0  0  0  0
 31 60  1  0  0  0  0
 33 32  1  0  0  0  0
 32 61  1  0  0  0  0
 32 62  1  0  0  0  0
 33 35  1  0  0  0  0
 33 63  1  0  0  0  0
 33 34  1  0  0  0  0
 34 64  1  0  0  0  0
 35 65  1  0  0  0  0
 35 66  1  0  0  0  0
 36 67  1  0  0  0  0
 36 68  1  0  0  0  0
 36 37  1  0  0  0  0
 37 69  1  0  0  0  0
 37 70  1  0  0  0  0
M  ZZC   1 f1
M  ZZC   2 c1
M  ZZC   3 c2
M  ZZC   4 o1
M  ZZC   5 n1
M  ZZC   6 c3
M  ZZC   7 c4
M  ZZC   8 c5
M  ZZC   9 c6
M  ZZC  10 c7
M  ZZC  11 c8
M  ZZC  12 o2
M  ZZC  13 n2
M  ZZC  14 c9
M  ZZC  15 c10
M  ZZC  16 o3
M  ZZC  17 n3
M  ZZC  18 c11
M  ZZC  19 c12
M  ZZC  20 c13
M  ZZC  21 o4
M  ZZC  22 c14
M  ZZC  23 c15
M  ZZC  24 c16
M  ZZC  25 c17
M  ZZC  26 c18
M  ZZC  27 n4
M  ZZC  28 c19
M  ZZC  29 s1
M  ZZC  30 c20
M  ZZC  31 c21
M  ZZC  32 c22
M  ZZC  33 c23
M  ZZC  34 o5
M  ZZC  35 c24
M  ZZC  36 c25
M  ZZC  37 c26
M  ZZC  38 h11
M  ZZC  39 h31
M  ZZC  40 h51
M  ZZC  41 h52
M  ZZC  42 h53
M  ZZC  43 h61
M  ZZC  44 h62
M  ZZC  45 h63
M  ZZC  46 h71
M  ZZC  47 h72
M  ZZC  48 h73
M  ZZC  49 h91
M  ZZC  50 h01
M  ZZC  51 h111
M  ZZC  52 h112
M  ZZC  53 h41
M  ZZC  54 h141
M  ZZC  55 h181
M  ZZC  56 h182
M  ZZC  57 h183
M  ZZC  58 h191
M  ZZC  59 h201
M  ZZC  60 h211
M  ZZC  61 h221
M  ZZC  62 h222
M  ZZC  63 h231
M  ZZC  64 h02
M  ZZC  65 h241
M  ZZC  66 h242
M  ZZC  67 h251
M  ZZC  68 h252
M  ZZC  69 h261
M  ZZC  70 h262
M  ZZM   1 11
M  ZZI   1 90
M  ZZM   2 22
M  ZZI   2 109
M  ZZM   3 3
M  ZZI   3 121
M  ZZM   4 7
M  ZZI   4 81
M  ZZM   5 10
M  ZZI   5 211
M  ZZM   6 1
M  ZZI   6 113
M  ZZM   7 1
M  ZZI   7 110
M  ZZM   8 1
M  ZZI   8 111
M  ZZM   9 1
M  ZZI   9 111
M  ZZM  10 1
M  ZZI  10 111
M  ZZM  11 3
M  ZZI  11 121
M  ZZM  12 7
M  ZZI  12 81
M  ZZM  13 10
M  ZZI  13 192
M  ZZM  14 1
M  ZZI  14 113
M  ZZM  15 3
M  ZZI  15 121
M  ZZM  16 7
M  ZZI  16 81
M  ZZM  17 10
M  ZZI  17 211
M  ZZM  18 1
M  ZZI  18 112
M  ZZM  19 37
M  ZZI  19 124
M  ZZM  20 37
M  ZZI  20 124
M  ZZM  21 6
M  ZZI  21 62
M  ZZM  22 37
M  ZZI  22 125
M  ZZM  23 37
M  ZZI  23 124
M  ZZM  24 63
M  ZZI  24 104
M  ZZM  25 64
M  ZZI  25 105
M  ZZM  26 1
M  ZZI  26 111
M  ZZM  27 66
M  ZZI  27 222
M  ZZM  28 63
M  ZZI  28 104
M  ZZM  29 44
M  ZZI  29 248
M  ZZM  30 37
M  ZZI  30 125
M  ZZM  31 37
M  ZZI  31 125
M  ZZM  32 1
M  ZZI  32 112
M  ZZM  33 1
M  ZZI  33 113
M  ZZM  34 6
M  ZZI  34 60
M  ZZM  35 1
M  ZZI  35 112
M  ZZM  36 22
M  ZZI  36 109
M  ZZM  37 22
M  ZZI  37 109
M  ZZM  38 28
M  ZZI  38 11
M  ZZM  39 5
M  ZZI  39 1
M  ZZM  40 5
M  ZZI  40 1
M  ZZM  41 5
M  ZZI  41 1
M  ZZM  42 5
M  ZZI  42 1
M  ZZM  43 5
M  ZZI  43 1
M  ZZM  44 5
M  ZZI  44 1
M  ZZM  45 5
M  ZZI  45 1
M  ZZM  46 5
M  ZZI  46 1
M  ZZM  47 5
M  ZZI  47 1
M  ZZM  48 5
M  ZZI  48 1
M  ZZM  49 5
M  ZZI  49 1
M  ZZM  50 28
M  ZZI  50 11
M  ZZM  51 5
M  ZZI  51 1
M  ZZM  52 5
M  ZZI  52 1
M  ZZM  53 29
M  ZZI  53 27
M  ZZM  54 5
M  ZZI  54 1
M  ZZM  55 5
M  ZZI  55 1
M  ZZM  56 5
M  ZZI  56 1
M  ZZM  57 5
M  ZZI  57 1
M  ZZM  58 5
M  ZZI  58 1
M  ZZM  59 5
M  ZZI  59 1
M  ZZM  60 5
M  ZZI  60 1
M  ZZM  61 5
M  ZZI  61 1
M  ZZM  62 5
M  ZZI  62 1
M  ZZM  63 5
M  ZZI  63 1
M  ZZM  64 21
M  ZZI  64 20
M  ZZM  65 5
M  ZZI  65 1
M  ZZM  66 5
M  ZZI  66 1
M  ZZM  67 5
M  ZZI  67 1
M  ZZM  68 5
M  ZZI  68 1
M  ZZM  69 5
M  ZZI  69 1
M  ZZM  70 5
M  ZZI  70 1
M  END
> <IX>
1

> <NAME>
VHL_5F1H_5.pdb

> <Score>
-23.783204

> <Natom>
70

> <Nflex>
9

> <Hbond>
-8.664722

> <Hphob>
-6.226192

> <VwInt>
-33.449902

> <Dsolv>
20.466407

> <SolEl>
14.585166

> <Eintl>
8.973299

> <RecConf>
ND

> <projPath>
VHL_maps/

> <NAME_>
VHL_5F1H_5.pdb

$$$$
