VHL_5GMP_15.pdb
  MOLSOFT 04032206413D

 65 67  0  0  1  0  0  0  0  0999 V2000
   18.1114   -6.6670   -5.1231 C   0  0  0  0  0  0  0  0  0  0  0  0
   16.8994   -5.7890   -4.9693 C   0  0  0  0  0  0  0  0  0  0  0  0
   15.8127   -6.1453   -5.3909 O   0  0  0  0  0  0  0  0  0  0  0  0
   17.1454   -4.6087   -4.2957 N   0  0  0  0  0  0  0  0  0  0  0  0
   16.1370   -3.5711   -4.0227 C   0  0  1  0  0  0  0  0  0  0  0  0
   15.8936   -3.3862   -2.4959 C   0  0  0  0  0  0  0  0  0  0  0  0
   15.4256   -4.7284   -1.9205 C   0  0  0  0  0  0  0  0  0  0  0  0
   14.7884   -2.3676   -2.1929 C   0  0  0  0  0  0  0  0  0  0  0  0
   17.1568   -2.9283   -1.7532 C   0  0  0  0  0  0  0  0  0  0  0  0
   16.6307   -2.3275   -4.7918 C   0  0  0  0  0  0  0  0  0  0  0  0
   17.8256   -2.0590   -4.8442 O   0  0  0  0  0  0  0  0  0  0  0  0
   15.6784   -1.5543   -5.4633 N   0  0  0  0  0  0  0  0  0  0  0  0
   16.0717   -0.6432   -6.5280 C   0  0  2  0  0  0  0  0  0  0  0  0
   16.4552    0.7488   -6.0195 C   0  0  0  0  0  0  0  0  0  0  0  0
   15.9410    1.2656   -5.0368 O   0  0  0  0  0  0  0  0  0  0  0  0
   17.3760    1.3883   -6.8286 N   0  0  0  0  0  0  0  0  0  0  0  0
   17.8218    2.7468   -6.5657 C   0  0  0  0  0  0  0  0  0  0  0  0
   19.2359    3.0249   -7.0169 C   0  0  0  0  0  0  0  0  0  0  0  0
   20.1790    2.0111   -7.1264 C   0  0  0  0  0  0  0  0  0  0  0  0
   21.4808    2.2851   -7.4914 C   0  0  0  0  0  0  0  0  0  0  0  0
   21.8947    3.5813   -7.7535 C   0  0  0  0  0  0  0  0  0  0  0  0
   23.2800    3.8397   -8.1117 C   0  0  0  0  0  0  0  0  0  0  0  0
   24.3502    4.2505   -7.3300 C   0  0  0  0  0  0  0  0  0  0  0  0
   24.3214    4.5783   -5.8866 C   0  0  0  0  0  0  0  0  0  0  0  0
   25.5597    4.3291   -7.9910 N   0  0  0  0  0  0  0  0  0  0  0  0
   25.3957    4.0032   -9.2535 C   0  0  0  0  0  0  0  0  0  0  0  0
   23.8079    3.5961   -9.7283 S   0  0  0  0  0  0  0  0  0  0  0  0
   20.9636    4.6060   -7.6393 C   0  0  0  0  0  0  0  0  0  0  0  0
   19.6526    4.3288   -7.2761 C   0  0  0  0  0  0  0  0  0  0  0  0
   14.8357   -0.5722   -7.4108 C   0  0  0  0  0  0  0  0  0  0  0  0
   13.6828   -0.6920   -6.4252 C   0  0  1  0  0  0  0  0  0  0  0  0
   12.5408   -1.3073   -7.0153 O   0  0  0  0  0  0  0  0  0  0  0  0
   14.2322   -1.5816   -5.3229 C   0  0  0  0  0  0  0  0  0  0  0  0
   19.0241   -6.0703   -5.2119 H   0  0  0  0  0  0  0  0  0  0  0  0
   18.0075   -7.2751   -6.0267 H   0  0  0  0  0  0  0  0  0  0  0  0
   18.1845   -7.3262   -4.2548 H   0  0  0  0  0  0  0  0  0  0  0  0
   18.1061   -4.4047   -4.0451 H   0  0  0  0  0  0  0  0  0  0  0  0
   15.2051   -3.9144   -4.4717 H   0  0  0  0  0  0  0  0  0  0  0  0
   15.1619   -4.6318   -0.8646 H   0  0  0  0  0  0  0  0  0  0  0  0
   16.1982   -5.4948   -2.0033 H   0  0  0  0  0  0  0  0  0  0  0  0
   14.5418   -5.1051   -2.4452 H   0  0  0  0  0  0  0  0  0  0  0  0
   15.0710   -1.3589   -2.5063 H   0  0  0  0  0  0  0  0  0  0  0  0
   14.5814   -2.3110   -1.1191 H   0  0  0  0  0  0  0  0  0  0  0  0
   13.8476   -2.6426   -2.6794 H   0  0  0  0  0  0  0  0  0  0  0  0
   16.9803   -2.8512   -0.6755 H   0  0  0  0  0  0  0  0  0  0  0  0
   17.4976   -1.9468   -2.0970 H   0  0  0  0  0  0  0  0  0  0  0  0
   17.9805   -3.6263   -1.8892 H   0  0  0  0  0  0  0  0  0  0  0  0
   16.9199   -1.0660   -7.0764 H   0  0  0  0  0  0  0  0  0  0  0  0
   17.7670    0.8895   -7.6231 H   0  0  0  0  0  0  0  0  0  0  0  0
   17.1248    3.4043   -7.0966 H   0  0  0  0  0  0  0  0  0  0  0  0
   17.7349    2.9569   -5.4945 H   0  0  0  0  0  0  0  0  0  0  0  0
   19.9085    0.9807   -6.9279 H   0  0  0  0  0  0  0  0  0  0  0  0
   22.1784    1.4611   -7.5761 H   0  0  0  0  0  0  0  0  0  0  0  0
   25.2866    4.9702   -5.5529 H   0  0  0  0  0  0  0  0  0  0  0  0
   24.1024    3.6871   -5.2938 H   0  0  0  0  0  0  0  0  0  0  0  0
   23.5607    5.3339   -5.6711 H   0  0  0  0  0  0  0  0  0  0  0  0
   26.2136    3.9941   -9.9595 H   0  0  0  0  0  0  0  0  0  0  0  0
   21.2548    5.6338   -7.8349 H   0  0  0  0  0  0  0  0  0  0  0  0
   18.9484    5.1514   -7.1906 H   0  0  0  0  0  0  0  0  0  0  0  0
   14.7712    0.3419   -8.0104 H   0  0  0  0  0  0  0  0  0  0  0  0
   14.8244   -1.4188   -8.1059 H   0  0  0  0  0  0  0  0  0  0  0  0
   13.3906    0.2864   -6.0268 H   0  0  0  0  0  0  0  0  0  0  0  0
   12.1933   -0.7102   -7.7022 H   0  0  0  0  0  0  0  0  0  0  0  0
   13.8503   -2.6030   -5.3606 H   0  0  0  0  0  0  0  0  0  0  0  0
   13.9596   -1.1574   -4.3565 H   0  0  0  0  0  0  0  0  0  0  0  0
  1 34  1  0  0  0  0
  1 35  1  0  0  0  0
  1 36  1  0  0  0  0
  1  2  1  0  0  0  0
  2  3  2  0  0  0  0
  2  4  1  0  0  0  0
  4 37  1  0  0  0  0
  5  4  1  0  0  0  0
  5 38  1  0  0  0  0
  5  6  1  0  0  0  0
  5 10  1  0  0  0  0
  6  7  1  0  0  0  0
  6  8  1  0  0  0  0
  6  9  1  0  0  0  0
  7 39  1  0  0  0  0
  7 40  1  0  0  0  0
  7 41  1  0  0  0  0
  8 42  1  0  0  0  0
  8 43  1  0  0  0  0
  8 44  1  0  0  0  0
  9 45  1  0  0  0  0
  9 46  1  0  0  0  0
  9 47  1  0  0  0  0
 10 11  2  0  0  0  0
 10 12  1  0  0  0  0
 12 33  1  0  0  0  0
 13 12  1  0  0  0  0
 13 30  1  0  0  0  0
 13 48  1  0  0  0  0
 13 14  1  0  0  0  0
 14 15  2  0  0  0  0
 14 16  1  0  0  0  0
 16 49  1  0  0  0  0
 16 17  1  0  0  0  0
 17 50  1  0  0  0  0
 17 51  1  0  0  0  0
 17 18  1  0  0  0  0
 18 19  1  0  0  0  0
 18 29  2  0  0  0  0
 19 52  1  0  0  0  0
 19 20  2  0  0  0  0
 20 53  1  0  0  0  0
 20 21  1  0  0  0  0
 21 28  2  0  0  0  0
 21 22  1  0  0  0  0
 22 23  2  0  0  0  0
 22 27  1  0  0  0  0
 23 24  1  0  0  0  0
 23 25  1  0  0  0  0
 24 54  1  0  0  0  0
 24 55  1  0  0  0  0
 24 56  1  0  0  0  0
 25 26  2  0  0  0  0
 26 57  1  0  0  0  0
 26 27  1  0  0  0  0
 28 58  1  0  0  0  0
 28 29  1  0  0  0  0
 29 59  1  0  0  0  0
 31 30  1  0  0  0  0
 30 60  1  0  0  0  0
 30 61  1  0  0  0  0
 31 33  1  0  0  0  0
 31 62  1  0  0  0  0
 31 32  1  0  0  0  0
 32 63  1  0  0  0  0
 33 64  1  0  0  0  0
 33 65  1  0  0  0  0
M  ZZC   1 c1
M  ZZC   2 c2
M  ZZC   3 o1
M  ZZC   4 n1
M  ZZC   5 c3
M  ZZC   6 c4
M  ZZC   7 c5
M  ZZC   8 c6
M  ZZC   9 c7
M  ZZC  10 c8
M  ZZC  11 o2
M  ZZC  12 n2
M  ZZC  13 c9
M  ZZC  14 c10
M  ZZC  15 o3
M  ZZC  16 n3
M  ZZC  17 c11
M  ZZC  18 c12
M  ZZC  19 c13
M  ZZC  20 c14
M  ZZC  21 c15
M  ZZC  22 c16
M  ZZC  23 c17
M  ZZC  24 c18
M  ZZC  25 n4
M  ZZC  26 c19
M  ZZC  27 s1
M  ZZC  28 c20
M  ZZC  29 c21
M  ZZC  30 c22
M  ZZC  31 c23
M  ZZC  32 o4
M  ZZC  33 c24
M  ZZC  34 h11
M  ZZC  35 h12
M  ZZC  36 h13
M  ZZC  37 h01
M  ZZC  38 h31
M  ZZC  39 h51
M  ZZC  40 h52
M  ZZC  41 h53
M  ZZC  42 h61
M  ZZC  43 h62
M  ZZC  44 h63
M  ZZC  45 h71
M  ZZC  46 h72
M  ZZC  47 h73
M  ZZC  48 h91
M  ZZC  49 h02
M  ZZC  50 h111
M  ZZC  51 h112
M  ZZC  52 h131
M  ZZC  53 h141
M  ZZC  54 h181
M  ZZC  55 h182
M  ZZC  56 h183
M  ZZC  57 h191
M  ZZC  58 h201
M  ZZC  59 h211
M  ZZC  60 h221
M  ZZC  61 h222
M  ZZC  62 h231
M  ZZC  63 h41
M  ZZC  64 h241
M  ZZC  65 h242
M  ZZM   1 1
M  ZZI   1 111
M  ZZM   2 3
M  ZZI   2 121
M  ZZM   3 7
M  ZZI   3 81
M  ZZM   4 10
M  ZZI   4 211
M  ZZM   5 1
M  ZZI   5 113
M  ZZM   6 1
M  ZZI   6 110
M  ZZM   7 1
M  ZZI   7 111
M  ZZM   8 1
M  ZZI   8 111
M  ZZM   9 1
M  ZZI   9 111
M  ZZM  10 3
M  ZZI  10 121
M  ZZM  11 7
M  ZZI  11 81
M  ZZM  12 10
M  ZZI  12 192
M  ZZM  13 1
M  ZZI  13 113
M  ZZM  14 3
M  ZZI  14 121
M  ZZM  15 7
M  ZZI  15 81
M  ZZM  16 10
M  ZZI  16 211
M  ZZM  17 1
M  ZZI  17 112
M  ZZM  18 37
M  ZZI  18 124
M  ZZM  19 37
M  ZZI  19 125
M  ZZM  20 37
M  ZZI  20 125
M  ZZM  21 37
M  ZZI  21 124
M  ZZM  22 63
M  ZZI  22 104
M  ZZM  23 64
M  ZZI  23 105
M  ZZM  24 1
M  ZZI  24 111
M  ZZM  25 66
M  ZZI  25 222
M  ZZM  26 63
M  ZZI  26 104
M  ZZM  27 44
M  ZZI  27 248
M  ZZM  28 37
M  ZZI  28 125
M  ZZM  29 37
M  ZZI  29 125
M  ZZM  30 1
M  ZZI  30 112
M  ZZM  31 1
M  ZZI  31 113
M  ZZM  32 6
M  ZZI  32 60
M  ZZM  33 1
M  ZZI  33 112
M  ZZM  34 5
M  ZZI  34 1
M  ZZM  35 5
M  ZZI  35 1
M  ZZM  36 5
M  ZZI  36 1
M  ZZM  37 28
M  ZZI  37 11
M  ZZM  38 5
M  ZZI  38 1
M  ZZM  39 5
M  ZZI  39 1
M  ZZM  40 5
M  ZZI  40 1
M  ZZM  41 5
M  ZZI  41 1
M  ZZM  42 5
M  ZZI  42 1
M  ZZM  43 5
M  ZZI  43 1
M  ZZM  44 5
M  ZZI  44 1
M  ZZM  45 5
M  ZZI  45 1
M  ZZM  46 5
M  ZZI  46 1
M  ZZM  47 5
M  ZZI  47 1
M  ZZM  48 5
M  ZZI  48 1
M  ZZM  49 28
M  ZZI  49 11
M  ZZM  50 5
M  ZZI  50 1
M  ZZM  51 5
M  ZZI  51 1
M  ZZM  52 5
M  ZZI  52 1
M  ZZM  53 5
M  ZZI  53 1
M  ZZM  54 5
M  ZZI  54 1
M  ZZM  55 5
M  ZZI  55 1
M  ZZM  56 5
M  ZZI  56 1
M  ZZM  57 5
M  ZZI  57 1
M  ZZM  58 5
M  ZZI  58 1
M  ZZM  59 5
M  ZZI  59 1
M  ZZM  60 5
M  ZZI  60 1
M  ZZM  61 5
M  ZZI  61 1
M  ZZM  62 5
M  ZZI  62 1
M  ZZM  63 21
M  ZZI  63 20
M  ZZM  64 5
M  ZZI  64 1
M  ZZM  65 5
M  ZZI  65 1
M  END
> <IX>
1

> <NAME>
VHL_5GMP_15.pdb

> <Score>
-11.203981

> <Natom>
65

> <Nflex>
8

> <Hbond>
-4.966269

> <Hphob>
-6.44141

> <VwInt>
-28.173495

> <Dsolv>
16.924987

> <SolEl>
17.458287

> <Eintl>
8.056184

> <RecConf>
ND

> <projPath>
VHL_maps/

> <NAME_>
VHL_5GMP_15.pdb

$$$$
