VHL_5T8E_24.pdb
  MOLSOFT 04032206403D

 65 67  0  0  1  0  0  0  0  0999 V2000
   18.1286   -6.6568   -5.1390 C   0  0  0  0  0  0  0  0  0  0  0  0
   16.9098   -5.7894   -4.9800 C   0  0  0  0  0  0  0  0  0  0  0  0
   15.8240   -6.1558   -5.3954 O   0  0  0  0  0  0  0  0  0  0  0  0
   17.1496   -4.6073   -4.3073 N   0  0  0  0  0  0  0  0  0  0  0  0
   16.1352   -3.5764   -4.0318 C   0  0  1  0  0  0  0  0  0  0  0  0
   15.8861   -3.4018   -2.5044 C   0  0  0  0  0  0  0  0  0  0  0  0
   14.7769   -2.3889   -2.1979 C   0  0  0  0  0  0  0  0  0  0  0  0
   17.1460   -2.9439   -1.7559 C   0  0  0  0  0  0  0  0  0  0  0  0
   15.4213   -4.7499   -1.9398 C   0  0  0  0  0  0  0  0  0  0  0  0
   16.6259   -2.3273   -4.7944 C   0  0  0  0  0  0  0  0  0  0  0  0
   17.8198   -2.0542   -4.8443 O   0  0  0  0  0  0  0  0  0  0  0  0
   15.6721   -1.5548   -5.4649 N   0  0  0  0  0  0  0  0  0  0  0  0
   16.0633   -0.6402   -6.5273 C   0  0  2  0  0  0  0  0  0  0  0  0
   16.4447    0.7510   -6.0143 C   0  0  0  0  0  0  0  0  0  0  0  0
   15.9136    1.2732   -5.0435 O   0  0  0  0  0  0  0  0  0  0  0  0
   17.3904    1.3804   -6.8023 N   0  0  0  0  0  0  0  0  0  0  0  0
   17.8438    2.7339   -6.5272 C   0  0  0  0  0  0  0  0  0  0  0  0
   19.2518    3.0154   -6.9954 C   0  0  0  0  0  0  0  0  0  0  0  0
   19.6683    4.3225   -7.2394 C   0  0  0  0  0  0  0  0  0  0  0  0
   20.9770    4.6024   -7.6085 C   0  0  0  0  0  0  0  0  0  0  0  0
   21.9058    3.5782   -7.7433 C   0  0  0  0  0  0  0  0  0  0  0  0
   23.2907    3.8395   -8.1013 C   0  0  0  0  0  0  0  0  0  0  0  0
   24.3567    4.2641   -7.3212 C   0  0  0  0  0  0  0  0  0  0  0  0
   24.3241    4.5981   -5.8793 C   0  0  0  0  0  0  0  0  0  0  0  0
   25.5666    4.3464   -7.9811 N   0  0  0  0  0  0  0  0  0  0  0  0
   25.4069    4.0093   -9.2411 C   0  0  0  0  0  0  0  0  0  0  0  0
   23.8230    3.5857   -9.7149 S   0  0  0  0  0  0  0  0  0  0  0  0
   21.4910    2.2789   -7.4999 C   0  0  0  0  0  0  0  0  0  0  0  0
   20.1920    2.0018   -7.1281 C   0  0  0  0  0  0  0  0  0  0  0  0
   14.8257   -0.5674   -7.4073 C   0  0  0  0  0  0  0  0  0  0  0  0
   13.6735   -0.6919   -6.4214 C   0  0  1  0  0  0  0  0  0  0  0  0
   12.5332   -1.3098   -7.0121 O   0  0  0  0  0  0  0  0  0  0  0  0
   14.2262   -1.5814   -5.3208 C   0  0  0  0  0  0  0  0  0  0  0  0
   19.0356   -6.0515   -5.2277 H   0  0  0  0  0  0  0  0  0  0  0  0
   18.0284   -7.2627   -6.0446 H   0  0  0  0  0  0  0  0  0  0  0  0
   18.2100   -7.3178   -4.2728 H   0  0  0  0  0  0  0  0  0  0  0  0
   18.1095   -4.3961   -4.0591 H   0  0  0  0  0  0  0  0  0  0  0  0
   15.2064   -3.9216   -4.4856 H   0  0  0  0  0  0  0  0  0  0  0  0
   15.0590   -1.3767   -2.5004 H   0  0  0  0  0  0  0  0  0  0  0  0
   14.5643   -2.3426   -1.1246 H   0  0  0  0  0  0  0  0  0  0  0  0
   13.8396   -2.6611   -2.6923 H   0  0  0  0  0  0  0  0  0  0  0  0
   16.9645   -2.8680   -0.6789 H   0  0  0  0  0  0  0  0  0  0  0  0
   17.4877   -1.9618   -2.0970 H   0  0  0  0  0  0  0  0  0  0  0  0
   17.9704   -3.6419   -1.8882 H   0  0  0  0  0  0  0  0  0  0  0  0
   15.1621   -4.6626   -0.8822 H   0  0  0  0  0  0  0  0  0  0  0  0
   16.1927   -5.5165   -2.0328 H   0  0  0  0  0  0  0  0  0  0  0  0
   14.5336   -5.1202   -2.4626 H   0  0  0  0  0  0  0  0  0  0  0  0
   16.9107   -1.0613   -7.0782 H   0  0  0  0  0  0  0  0  0  0  0  0
   17.7854    0.8819   -7.5948 H   0  0  0  0  0  0  0  0  0  0  0  0
   17.1404    3.4017   -7.0365 H   0  0  0  0  0  0  0  0  0  0  0  0
   17.7738    2.9264   -5.4513 H   0  0  0  0  0  0  0  0  0  0  0  0
   18.9670    5.1452   -7.1339 H   0  0  0  0  0  0  0  0  0  0  0  0
   21.2690    5.6327   -7.7892 H   0  0  0  0  0  0  0  0  0  0  0  0
   25.2851    5.0010   -5.5468 H   0  0  0  0  0  0  0  0  0  0  0  0
   24.1139    3.7068   -5.2832 H   0  0  0  0  0  0  0  0  0  0  0  0
   23.5557    5.3469   -5.6669 H   0  0  0  0  0  0  0  0  0  0  0  0
   26.2260    4.0006   -9.9458 H   0  0  0  0  0  0  0  0  0  0  0  0
   22.1876    1.4556   -7.5979 H   0  0  0  0  0  0  0  0  0  0  0  0
   19.9226    0.9695   -6.9392 H   0  0  0  0  0  0  0  0  0  0  0  0
   14.7593    0.3493   -8.0028 H   0  0  0  0  0  0  0  0  0  0  0  0
   14.8146   -1.4109   -8.1062 H   0  0  0  0  0  0  0  0  0  0  0  0
   13.3781    0.2853   -6.0223 H   0  0  0  0  0  0  0  0  0  0  0  0
   12.1856   -0.7153   -7.7013 H   0  0  0  0  0  0  0  0  0  0  0  0
   13.8432   -2.6025   -5.3559 H   0  0  0  0  0  0  0  0  0  0  0  0
   13.9574   -1.1555   -4.3541 H   0  0  0  0  0  0  0  0  0  0  0  0
  1 34  1  0  0  0  0
  1 35  1  0  0  0  0
  1 36  1  0  0  0  0
  1  2  1  0  0  0  0
  2  3  2  0  0  0  0
  2  4  1  0  0  0  0
  4 37  1  0  0  0  0
  5  4  1  0  0  0  0
  5 38  1  0  0  0  0
  5  6  1  0  0  0  0
  5 10  1  0  0  0  0
  6  7  1  0  0  0  0
  6  8  1  0  0  0  0
  6  9  1  0  0  0  0
  7 39  1  0  0  0  0
  7 40  1  0  0  0  0
  7 41  1  0  0  0  0
  8 42  1  0  0  0  0
  8 43  1  0  0  0  0
  8 44  1  0  0  0  0
  9 45  1  0  0  0  0
  9 46  1  0  0  0  0
  9 47  1  0  0  0  0
 10 11  2  0  0  0  0
 10 12  1  0  0  0  0
 12 33  1  0  0  0  0
 13 12  1  0  0  0  0
 13 30  1  0  0  0  0
 13 48  1  0  0  0  0
 13 14  1  0  0  0  0
 14 15  2  0  0  0  0
 14 16  1  0  0  0  0
 16 49  1  0  0  0  0
 16 17  1  0  0  0  0
 17 50  1  0  0  0  0
 17 51  1  0  0  0  0
 17 18  1  0  0  0  0
 18 19  1  0  0  0  0
 18 29  2  0  0  0  0
 19 52  1  0  0  0  0
 19 20  2  0  0  0  0
 20 53  1  0  0  0  0
 20 21  1  0  0  0  0
 21 28  2  0  0  0  0
 21 22  1  0  0  0  0
 22 23  2  0  0  0  0
 22 27  1  0  0  0  0
 23 24  1  0  0  0  0
 23 25  1  0  0  0  0
 24 54  1  0  0  0  0
 24 55  1  0  0  0  0
 24 56  1  0  0  0  0
 25 26  2  0  0  0  0
 26 57  1  0  0  0  0
 26 27  1  0  0  0  0
 28 58  1  0  0  0  0
 28 29  1  0  0  0  0
 29 59  1  0  0  0  0
 31 30  1  0  0  0  0
 30 60  1  0  0  0  0
 30 61  1  0  0  0  0
 31 33  1  0  0  0  0
 31 62  1  0  0  0  0
 31 32  1  0  0  0  0
 32 63  1  0  0  0  0
 33 64  1  0  0  0  0
 33 65  1  0  0  0  0
M  ZZC   1 c1
M  ZZC   2 c2
M  ZZC   3 o1
M  ZZC   4 n1
M  ZZC   5 c3
M  ZZC   6 c4
M  ZZC   7 c5
M  ZZC   8 c6
M  ZZC   9 c7
M  ZZC  10 c8
M  ZZC  11 o2
M  ZZC  12 n2
M  ZZC  13 c9
M  ZZC  14 c10
M  ZZC  15 o3
M  ZZC  16 n3
M  ZZC  17 c11
M  ZZC  18 c12
M  ZZC  19 c13
M  ZZC  20 c14
M  ZZC  21 c15
M  ZZC  22 c16
M  ZZC  23 c17
M  ZZC  24 c18
M  ZZC  25 n4
M  ZZC  26 c19
M  ZZC  27 s1
M  ZZC  28 c20
M  ZZC  29 c21
M  ZZC  30 c22
M  ZZC  31 c23
M  ZZC  32 o4
M  ZZC  33 c24
M  ZZC  34 h11
M  ZZC  35 h12
M  ZZC  36 h13
M  ZZC  37 h01
M  ZZC  38 h31
M  ZZC  39 h51
M  ZZC  40 h52
M  ZZC  41 h53
M  ZZC  42 h61
M  ZZC  43 h62
M  ZZC  44 h63
M  ZZC  45 h71
M  ZZC  46 h72
M  ZZC  47 h73
M  ZZC  48 h91
M  ZZC  49 h02
M  ZZC  50 h111
M  ZZC  51 h112
M  ZZC  52 h131
M  ZZC  53 h141
M  ZZC  54 h181
M  ZZC  55 h182
M  ZZC  56 h183
M  ZZC  57 h191
M  ZZC  58 h201
M  ZZC  59 h211
M  ZZC  60 h221
M  ZZC  61 h222
M  ZZC  62 h231
M  ZZC  63 h41
M  ZZC  64 h241
M  ZZC  65 h242
M  ZZM   1 1
M  ZZI   1 111
M  ZZM   2 3
M  ZZI   2 121
M  ZZM   3 7
M  ZZI   3 81
M  ZZM   4 10
M  ZZI   4 211
M  ZZM   5 1
M  ZZI   5 113
M  ZZM   6 1
M  ZZI   6 110
M  ZZM   7 1
M  ZZI   7 111
M  ZZM   8 1
M  ZZI   8 111
M  ZZM   9 1
M  ZZI   9 111
M  ZZM  10 3
M  ZZI  10 121
M  ZZM  11 7
M  ZZI  11 81
M  ZZM  12 10
M  ZZI  12 192
M  ZZM  13 1
M  ZZI  13 113
M  ZZM  14 3
M  ZZI  14 121
M  ZZM  15 7
M  ZZI  15 81
M  ZZM  16 10
M  ZZI  16 211
M  ZZM  17 1
M  ZZI  17 112
M  ZZM  18 37
M  ZZI  18 124
M  ZZM  19 37
M  ZZI  19 125
M  ZZM  20 37
M  ZZI  20 125
M  ZZM  21 37
M  ZZI  21 124
M  ZZM  22 63
M  ZZI  22 104
M  ZZM  23 64
M  ZZI  23 105
M  ZZM  24 1
M  ZZI  24 111
M  ZZM  25 66
M  ZZI  25 222
M  ZZM  26 63
M  ZZI  26 104
M  ZZM  27 44
M  ZZI  27 248
M  ZZM  28 37
M  ZZI  28 125
M  ZZM  29 37
M  ZZI  29 125
M  ZZM  30 1
M  ZZI  30 112
M  ZZM  31 1
M  ZZI  31 113
M  ZZM  32 6
M  ZZI  32 60
M  ZZM  33 1
M  ZZI  33 112
M  ZZM  34 5
M  ZZI  34 1
M  ZZM  35 5
M  ZZI  35 1
M  ZZM  36 5
M  ZZI  36 1
M  ZZM  37 28
M  ZZI  37 11
M  ZZM  38 5
M  ZZI  38 1
M  ZZM  39 5
M  ZZI  39 1
M  ZZM  40 5
M  ZZI  40 1
M  ZZM  41 5
M  ZZI  41 1
M  ZZM  42 5
M  ZZI  42 1
M  ZZM  43 5
M  ZZI  43 1
M  ZZM  44 5
M  ZZI  44 1
M  ZZM  45 5
M  ZZI  45 1
M  ZZM  46 5
M  ZZI  46 1
M  ZZM  47 5
M  ZZI  47 1
M  ZZM  48 5
M  ZZI  48 1
M  ZZM  49 28
M  ZZI  49 11
M  ZZM  50 5
M  ZZI  50 1
M  ZZM  51 5
M  ZZI  51 1
M  ZZM  52 5
M  ZZI  52 1
M  ZZM  53 5
M  ZZI  53 1
M  ZZM  54 5
M  ZZI  54 1
M  ZZM  55 5
M  ZZI  55 1
M  ZZM  56 5
M  ZZI  56 1
M  ZZM  57 5
M  ZZI  57 1
M  ZZM  58 5
M  ZZI  58 1
M  ZZM  59 5
M  ZZI  59 1
M  ZZM  60 5
M  ZZI  60 1
M  ZZM  61 5
M  ZZI  61 1
M  ZZM  62 5
M  ZZI  62 1
M  ZZM  63 21
M  ZZI  63 20
M  ZZM  64 5
M  ZZI  64 1
M  ZZM  65 5
M  ZZI  65 1
M  END
> <IX>
1

> <NAME>
VHL_5T8E_24.pdb

> <Score>
-11.913759

> <Natom>
65

> <Nflex>
8

> <Hbond>
-4.958728

> <Hphob>
-6.442205

> <VwInt>
-28.276559

> <Dsolv>
16.732329

> <SolEl>
16.684814

> <Eintl>
8.105724

> <RecConf>
ND

> <projPath>
VHL_maps/

> <NAME_>
VHL_5T8E_24.pdb

$$$$
