VHL_5VBP_14.pdb
  MOLSOFT 04032206423D

 65 67  0  0  1  0  0  0  0  0999 V2000
   18.1156   -6.6545   -5.1197 C   0  0  0  0  0  0  0  0  0  0  0  0
   16.9011   -5.7805   -4.9656 C   0  0  0  0  0  0  0  0  0  0  0  0
   15.8161   -6.1373   -5.3910 O   0  0  0  0  0  0  0  0  0  0  0  0
   17.1438   -4.6040   -4.2840 N   0  0  0  0  0  0  0  0  0  0  0  0
   16.1349   -3.5659   -4.0158 C   0  0  1  0  0  0  0  0  0  0  0  0
   15.8930   -3.3739   -2.4892 C   0  0  0  0  0  0  0  0  0  0  0  0
   14.7883   -2.3539   -2.1893 C   0  0  0  0  0  0  0  0  0  0  0  0
   15.4264   -4.7138   -1.9073 C   0  0  0  0  0  0  0  0  0  0  0  0
   17.1576   -2.9134   -1.7501 C   0  0  0  0  0  0  0  0  0  0  0  0
   16.6288   -2.3255   -4.7904 C   0  0  0  0  0  0  0  0  0  0  0  0
   17.8234   -2.0567   -4.8448 O   0  0  0  0  0  0  0  0  0  0  0  0
   15.6761   -1.5541   -5.4638 N   0  0  0  0  0  0  0  0  0  0  0  0
   16.0693   -0.6421   -6.5277 C   0  0  2  0  0  0  0  0  0  0  0  0
   16.4515    0.7499   -6.0176 C   0  0  0  0  0  0  0  0  0  0  0  0
   15.9307    1.2680   -5.0391 O   0  0  0  0  0  0  0  0  0  0  0  0
   17.3818    1.3858   -6.8188 N   0  0  0  0  0  0  0  0  0  0  0  0
   17.8323    2.7414   -6.5495 C   0  0  0  0  0  0  0  0  0  0  0  0
   19.2428    3.0208   -7.0113 C   0  0  0  0  0  0  0  0  0  0  0  0
   19.6583    4.3258   -7.2679 C   0  0  0  0  0  0  0  0  0  0  0  0
   20.9678    4.6037   -7.6356 C   0  0  0  0  0  0  0  0  0  0  0  0
   21.8990    3.5796   -7.7547 C   0  0  0  0  0  0  0  0  0  0  0  0
   23.2835    3.8393   -8.1153 C   0  0  0  0  0  0  0  0  0  0  0  0
   24.3536    4.2550   -7.3359 C   0  0  0  0  0  0  0  0  0  0  0  0
   24.3262    4.5833   -5.8926 C   0  0  0  0  0  0  0  0  0  0  0  0
   25.5619    4.3364   -7.9989 N   0  0  0  0  0  0  0  0  0  0  0  0
   25.3972    4.0074   -9.2603 C   0  0  0  0  0  0  0  0  0  0  0  0
   23.8103    3.5936   -9.7319 S   0  0  0  0  0  0  0  0  0  0  0  0
   21.4856    2.2824   -7.4976 C   0  0  0  0  0  0  0  0  0  0  0  0
   20.1853    2.0072   -7.1288 C   0  0  0  0  0  0  0  0  0  0  0  0
   14.8332   -0.5706   -7.4102 C   0  0  0  0  0  0  0  0  0  0  0  0
   13.6800   -0.6913   -6.4250 C   0  0  1  0  0  0  0  0  0  0  0  0
   12.5387   -1.3077   -7.0153 O   0  0  0  0  0  0  0  0  0  0  0  0
   14.2299   -1.5808   -5.3230 C   0  0  0  0  0  0  0  0  0  0  0  0
   19.0208   -6.0530   -5.2449 H   0  0  0  0  0  0  0  0  0  0  0  0
   17.9981   -7.2876   -6.0044 H   0  0  0  0  0  0  0  0  0  0  0  0
   18.2116   -7.2896   -4.2360 H   0  0  0  0  0  0  0  0  0  0  0  0
   18.1045   -4.3988   -4.0336 H   0  0  0  0  0  0  0  0  0  0  0  0
   15.2032   -3.9112   -4.4640 H   0  0  0  0  0  0  0  0  0  0  0  0
   15.0717   -1.3462   -2.5053 H   0  0  0  0  0  0  0  0  0  0  0  0
   14.5810   -2.2942   -1.1157 H   0  0  0  0  0  0  0  0  0  0  0  0
   13.8476   -2.6293   -2.6756 H   0  0  0  0  0  0  0  0  0  0  0  0
   15.1697   -4.6133   -0.8499 H   0  0  0  0  0  0  0  0  0  0  0  0
   16.1967   -5.4823   -1.9931 H   0  0  0  0  0  0  0  0  0  0  0  0
   14.5375   -5.0891   -2.4243 H   0  0  0  0  0  0  0  0  0  0  0  0
   16.9805   -2.8254   -0.6733 H   0  0  0  0  0  0  0  0  0  0  0  0
   17.5021   -1.9364   -2.1028 H   0  0  0  0  0  0  0  0  0  0  0  0
   17.9787   -3.6164   -1.8780 H   0  0  0  0  0  0  0  0  0  0  0  0
   16.9173   -1.0647   -7.0765 H   0  0  0  0  0  0  0  0  0  0  0  0
   17.7740    0.8873   -7.6128 H   0  0  0  0  0  0  0  0  0  0  0  0
   17.1316    3.4046   -7.0685 H   0  0  0  0  0  0  0  0  0  0  0  0
   17.7558    2.9422   -5.4756 H   0  0  0  0  0  0  0  0  0  0  0  0
   18.9551    5.1485   -7.1754 H   0  0  0  0  0  0  0  0  0  0  0  0
   21.2587    5.6322   -7.8280 H   0  0  0  0  0  0  0  0  0  0  0  0
   25.2983    4.9562   -5.5575 H   0  0  0  0  0  0  0  0  0  0  0  0
   24.0796    3.7025   -5.2927 H   0  0  0  0  0  0  0  0  0  0  0  0
   23.5730    5.3472   -5.6858 H   0  0  0  0  0  0  0  0  0  0  0  0
   26.2142    3.9997   -9.9675 H   0  0  0  0  0  0  0  0  0  0  0  0
   22.1834    1.4590   -7.5857 H   0  0  0  0  0  0  0  0  0  0  0  0
   19.9156    0.9765   -6.9316 H   0  0  0  0  0  0  0  0  0  0  0  0
   14.7683    0.3446   -8.0080 H   0  0  0  0  0  0  0  0  0  0  0  0
   14.8221   -1.4159   -8.1068 H   0  0  0  0  0  0  0  0  0  0  0  0
   13.3867    0.2870   -6.0272 H   0  0  0  0  0  0  0  0  0  0  0  0
   12.1920   -0.7127   -7.7046 H   0  0  0  0  0  0  0  0  0  0  0  0
   13.8472   -2.6020   -5.3590 H   0  0  0  0  0  0  0  0  0  0  0  0
   13.9580   -1.1552   -4.3571 H   0  0  0  0  0  0  0  0  0  0  0  0
  1 34  1  0  0  0  0
  1 35  1  0  0  0  0
  1 36  1  0  0  0  0
  1  2  1  0  0  0  0
  2  3  2  0  0  0  0
  2  4  1  0  0  0  0
  4 37  1  0  0  0  0
  5  4  1  0  0  0  0
  5 38  1  0  0  0  0
  5  6  1  0  0  0  0
  5 10  1  0  0  0  0
  6  7  1  0  0  0  0
  6  8  1  0  0  0  0
  6  9  1  0  0  0  0
  7 39  1  0  0  0  0
  7 40  1  0  0  0  0
  7 41  1  0  0  0  0
  8 42  1  0  0  0  0
  8 43  1  0  0  0  0
  8 44  1  0  0  0  0
  9 45  1  0  0  0  0
  9 46  1  0  0  0  0
  9 47  1  0  0  0  0
 10 11  2  0  0  0  0
 10 12  1  0  0  0  0
 12 33  1  0  0  0  0
 13 12  1  0  0  0  0
 13 30  1  0  0  0  0
 13 48  1  0  0  0  0
 13 14  1  0  0  0  0
 14 15  2  0  0  0  0
 14 16  1  0  0  0  0
 16 49  1  0  0  0  0
 16 17  1  0  0  0  0
 17 50  1  0  0  0  0
 17 51  1  0  0  0  0
 17 18  1  0  0  0  0
 18 19  1  0  0  0  0
 18 29  2  0  0  0  0
 19 52  1  0  0  0  0
 19 20  2  0  0  0  0
 20 53  1  0  0  0  0
 20 21  1  0  0  0  0
 21 28  2  0  0  0  0
 21 22  1  0  0  0  0
 22 23  2  0  0  0  0
 22 27  1  0  0  0  0
 23 24  1  0  0  0  0
 23 25  1  0  0  0  0
 24 54  1  0  0  0  0
 24 55  1  0  0  0  0
 24 56  1  0  0  0  0
 25 26  2  0  0  0  0
 26 57  1  0  0  0  0
 26 27  1  0  0  0  0
 28 58  1  0  0  0  0
 28 29  1  0  0  0  0
 29 59  1  0  0  0  0
 31 30  1  0  0  0  0
 30 60  1  0  0  0  0
 30 61  1  0  0  0  0
 31 33  1  0  0  0  0
 31 62  1  0  0  0  0
 31 32  1  0  0  0  0
 32 63  1  0  0  0  0
 33 64  1  0  0  0  0
 33 65  1  0  0  0  0
M  ZZC   1 c1
M  ZZC   2 c2
M  ZZC   3 o1
M  ZZC   4 n1
M  ZZC   5 c3
M  ZZC   6 c4
M  ZZC   7 c5
M  ZZC   8 c6
M  ZZC   9 c7
M  ZZC  10 c8
M  ZZC  11 o2
M  ZZC  12 n2
M  ZZC  13 c9
M  ZZC  14 c10
M  ZZC  15 o3
M  ZZC  16 n3
M  ZZC  17 c11
M  ZZC  18 c12
M  ZZC  19 c13
M  ZZC  20 c14
M  ZZC  21 c15
M  ZZC  22 c16
M  ZZC  23 c17
M  ZZC  24 c18
M  ZZC  25 n4
M  ZZC  26 c19
M  ZZC  27 s1
M  ZZC  28 c20
M  ZZC  29 c21
M  ZZC  30 c22
M  ZZC  31 c23
M  ZZC  32 o4
M  ZZC  33 c24
M  ZZC  34 h11
M  ZZC  35 h12
M  ZZC  36 h13
M  ZZC  37 h01
M  ZZC  38 h31
M  ZZC  39 h51
M  ZZC  40 h52
M  ZZC  41 h53
M  ZZC  42 h61
M  ZZC  43 h62
M  ZZC  44 h63
M  ZZC  45 h71
M  ZZC  46 h72
M  ZZC  47 h73
M  ZZC  48 h91
M  ZZC  49 h02
M  ZZC  50 h111
M  ZZC  51 h112
M  ZZC  52 h131
M  ZZC  53 h141
M  ZZC  54 h181
M  ZZC  55 h182
M  ZZC  56 h183
M  ZZC  57 h191
M  ZZC  58 h201
M  ZZC  59 h211
M  ZZC  60 h221
M  ZZC  61 h222
M  ZZC  62 h231
M  ZZC  63 h41
M  ZZC  64 h241
M  ZZC  65 h242
M  ZZM   1 1
M  ZZI   1 111
M  ZZM   2 3
M  ZZI   2 121
M  ZZM   3 7
M  ZZI   3 81
M  ZZM   4 10
M  ZZI   4 211
M  ZZM   5 1
M  ZZI   5 113
M  ZZM   6 1
M  ZZI   6 110
M  ZZM   7 1
M  ZZI   7 111
M  ZZM   8 1
M  ZZI   8 111
M  ZZM   9 1
M  ZZI   9 111
M  ZZM  10 3
M  ZZI  10 121
M  ZZM  11 7
M  ZZI  11 81
M  ZZM  12 10
M  ZZI  12 192
M  ZZM  13 1
M  ZZI  13 113
M  ZZM  14 3
M  ZZI  14 121
M  ZZM  15 7
M  ZZI  15 81
M  ZZM  16 10
M  ZZI  16 211
M  ZZM  17 1
M  ZZI  17 112
M  ZZM  18 37
M  ZZI  18 124
M  ZZM  19 37
M  ZZI  19 125
M  ZZM  20 37
M  ZZI  20 125
M  ZZM  21 37
M  ZZI  21 124
M  ZZM  22 63
M  ZZI  22 104
M  ZZM  23 64
M  ZZI  23 105
M  ZZM  24 1
M  ZZI  24 111
M  ZZM  25 66
M  ZZI  25 222
M  ZZM  26 63
M  ZZI  26 104
M  ZZM  27 44
M  ZZI  27 248
M  ZZM  28 37
M  ZZI  28 125
M  ZZM  29 37
M  ZZI  29 125
M  ZZM  30 1
M  ZZI  30 112
M  ZZM  31 1
M  ZZI  31 113
M  ZZM  32 6
M  ZZI  32 60
M  ZZM  33 1
M  ZZI  33 112
M  ZZM  34 5
M  ZZI  34 1
M  ZZM  35 5
M  ZZI  35 1
M  ZZM  36 5
M  ZZI  36 1
M  ZZM  37 28
M  ZZI  37 11
M  ZZM  38 5
M  ZZI  38 1
M  ZZM  39 5
M  ZZI  39 1
M  ZZM  40 5
M  ZZI  40 1
M  ZZM  41 5
M  ZZI  41 1
M  ZZM  42 5
M  ZZI  42 1
M  ZZM  43 5
M  ZZI  43 1
M  ZZM  44 5
M  ZZI  44 1
M  ZZM  45 5
M  ZZI  45 1
M  ZZM  46 5
M  ZZI  46 1
M  ZZM  47 5
M  ZZI  47 1
M  ZZM  48 5
M  ZZI  48 1
M  ZZM  49 28
M  ZZI  49 11
M  ZZM  50 5
M  ZZI  50 1
M  ZZM  51 5
M  ZZI  51 1
M  ZZM  52 5
M  ZZI  52 1
M  ZZM  53 5
M  ZZI  53 1
M  ZZM  54 5
M  ZZI  54 1
M  ZZM  55 5
M  ZZI  55 1
M  ZZM  56 5
M  ZZI  56 1
M  ZZM  57 5
M  ZZI  57 1
M  ZZM  58 5
M  ZZI  58 1
M  ZZM  59 5
M  ZZI  59 1
M  ZZM  60 5
M  ZZI  60 1
M  ZZM  61 5
M  ZZI  61 1
M  ZZM  62 5
M  ZZI  62 1
M  ZZM  63 21
M  ZZI  63 20
M  ZZM  64 5
M  ZZI  64 1
M  ZZM  65 5
M  ZZI  65 1
M  END
> <IX>
1

> <NAME>
VHL_5VBP_14.pdb

> <Score>
-11.969066

> <Natom>
65

> <Nflex>
8

> <Hbond>
-4.958627

> <Hphob>
-6.483097

> <VwInt>
-28.109475

> <Dsolv>
16.743691

> <SolEl>
16.688773

> <Eintl>
7.761754

> <RecConf>
ND

> <projPath>
VHL_maps/

> <NAME_>
VHL_5VBP_14.pdb

$$$$
