VHL_5EU1_26.pdb
  MOLSOFT 04032206413D

 70 73  0  0  1  0  0  0  0  0999 V2000
   18.7430   -5.3909   -5.9388 F   0  0  0  0  0  0  0  0  0  0  0  0
   17.7020   -5.9710   -5.2197 C   0  0  0  0  0  0  0  0  0  0  0  0
   16.8220   -5.0275   -4.4639 C   0  0  0  0  0  0  0  0  0  0  0  0
   15.7526   -5.3895   -3.9955 O   0  0  0  0  0  0  0  0  0  0  0  0
   17.3029   -3.7379   -4.3681 N   0  0  0  0  0  0  0  0  0  0  0  0
   16.4619   -2.6153   -3.9328 C   0  0  1  0  0  0  0  0  0  0  0  0
   16.6659   -2.1759   -2.4499 C   0  0  0  0  0  0  0  0  0  0  0  0
   18.0673   -1.6068   -2.1918 C   0  0  0  0  0  0  0  0  0  0  0  0
   15.6377   -1.0994   -2.0691 C   0  0  0  0  0  0  0  0  0  0  0  0
   16.4426   -3.3696   -1.5073 C   0  0  0  0  0  0  0  0  0  0  0  0
   16.7436   -1.5100   -4.9719 C   0  0  0  0  0  0  0  0  0  0  0  0
   17.8939   -1.1957   -5.2547 O   0  0  0  0  0  0  0  0  0  0  0  0
   15.6417   -0.9395   -5.6114 N   0  0  0  0  0  0  0  0  0  0  0  0
   15.8057   -0.0964   -6.7897 C   0  0  2  0  0  0  0  0  0  0  0  0
   16.1196    1.3593   -6.4238 C   0  0  0  0  0  0  0  0  0  0  0  0
   15.3180    2.0948   -5.8638 O   0  0  0  0  0  0  0  0  0  0  0  0
   17.4038    1.7422   -6.7588 N   0  0  0  0  0  0  0  0  0  0  0  0
   17.9314    3.0635   -6.4634 C   0  0  0  0  0  0  0  0  0  0  0  0
   19.3325    3.2959   -6.9872 C   0  0  0  0  0  0  0  0  0  0  0  0
   20.2801    2.2818   -7.0396 C   0  0  0  0  0  0  0  0  0  0  0  0
   19.9378    1.0207   -6.6093 O   0  0  0  0  0  0  0  0  0  0  0  0
   21.5651    2.4846   -7.4979 C   0  0  0  0  0  0  0  0  0  0  0  0
   21.9701    3.7456   -7.8960 C   0  0  0  0  0  0  0  0  0  0  0  0
   23.3449    3.9458   -8.3221 C   0  0  0  0  0  0  0  0  0  0  0  0
   24.4781    4.2468   -7.5803 C   0  0  0  0  0  0  0  0  0  0  0  0
   24.5417    4.5048   -6.1236 C   0  0  0  0  0  0  0  0  0  0  0  0
   25.6547    4.2815   -8.3013 N   0  0  0  0  0  0  0  0  0  0  0  0
   25.4053    4.0270   -9.5663 C   0  0  0  0  0  0  0  0  0  0  0  0
   23.7724    3.7396   -9.9720 S   0  0  0  0  0  0  0  0  0  0  0  0
   21.0463    4.7846   -7.8443 C   0  0  0  0  0  0  0  0  0  0  0  0
   19.7473    4.5622   -7.3986 C   0  0  0  0  0  0  0  0  0  0  0  0
   14.4709   -0.2196   -7.5052 C   0  0  0  0  0  0  0  0  0  0  0  0
   13.4577   -0.4411   -6.3937 C   0  0  1  0  0  0  0  0  0  0  0  0
   12.3360   -1.1984   -6.8502 O   0  0  0  0  0  0  0  0  0  0  0  0
   14.2405   -1.2403   -5.3676 C   0  0  0  0  0  0  0  0  0  0  0  0
   17.1215   -7.2086   -5.8660 C   0  0  0  0  0  0  0  0  0  0  0  0
   18.0085   -7.3376   -4.6731 C   0  0  0  0  0  0  0  0  0  0  0  0
   18.2278   -3.5426   -4.7450 H   0  0  0  0  0  0  0  0  0  0  0  0
   15.4296   -2.9563   -4.0361 H   0  0  0  0  0  0  0  0  0  0  0  0
   18.2213   -1.3875   -1.1305 H   0  0  0  0  0  0  0  0  0  0  0  0
   18.2397   -0.6733   -2.7353 H   0  0  0  0  0  0  0  0  0  0  0  0
   18.8411   -2.3137   -2.4883 H   0  0  0  0  0  0  0  0  0  0  0  0
   15.7426   -0.2076   -2.6958 H   0  0  0  0  0  0  0  0  0  0  0  0
   15.7632   -0.7757   -1.0306 H   0  0  0  0  0  0  0  0  0  0  0  0
   14.6098   -1.4548   -2.1900 H   0  0  0  0  0  0  0  0  0  0  0  0
   16.5103   -3.0698   -0.4565 H   0  0  0  0  0  0  0  0  0  0  0  0
   17.1874   -4.1532   -1.6604 H   0  0  0  0  0  0  0  0  0  0  0  0
   15.4536   -3.8171   -1.6525 H   0  0  0  0  0  0  0  0  0  0  0  0
   16.6100   -0.4950   -7.4195 H   0  0  0  0  0  0  0  0  0  0  0  0
   18.0569    1.0344   -7.0900 H   0  0  0  0  0  0  0  0  0  0  0  0
   17.2360    3.7926   -6.8940 H   0  0  0  0  0  0  0  0  0  0  0  0
   17.9185    3.1954   -5.3761 H   0  0  0  0  0  0  0  0  0  0  0  0
   20.3790    0.3922   -7.2088 H   0  0  0  0  0  0  0  0  0  0  0  0
   22.2585    1.6528   -7.5328 H   0  0  0  0  0  0  0  0  0  0  0  0
   23.9620    5.3946   -5.8621 H   0  0  0  0  0  0  0  0  0  0  0  0
   25.5732    4.6656   -5.7965 H   0  0  0  0  0  0  0  0  0  0  0  0
   24.1442    3.6570   -5.5599 H   0  0  0  0  0  0  0  0  0  0  0  0
   26.1834    4.0005  -10.3156 H   0  0  0  0  0  0  0  0  0  0  0  0
   21.3360    5.7853   -8.1514 H   0  0  0  0  0  0  0  0  0  0  0  0
   19.0535    5.3975   -7.3701 H   0  0  0  0  0  0  0  0  0  0  0  0
   14.2202    0.6440   -8.1304 H   0  0  0  0  0  0  0  0  0  0  0  0
   14.4997   -1.1000   -8.1542 H   0  0  0  0  0  0  0  0  0  0  0  0
   13.1045    0.5059   -5.9711 H   0  0  0  0  0  0  0  0  0  0  0  0
   11.8725   -0.6809   -7.5341 H   0  0  0  0  0  0  0  0  0  0  0  0
   14.0701   -2.3154   -5.4780 H   0  0  0  0  0  0  0  0  0  0  0  0
   13.9660   -0.9596   -4.3482 H   0  0  0  0  0  0  0  0  0  0  0  0
   16.0723   -7.4278   -5.7346 H   0  0  0  0  0  0  0  0  0  0  0  0
   17.5286   -7.5477   -6.8072 H   0  0  0  0  0  0  0  0  0  0  0  0
   18.9999   -7.7333   -4.8459 H   0  0  0  0  0  0  0  0  0  0  0  0
   17.5495   -7.6387   -3.7420 H   0  0  0  0  0  0  0  0  0  0  0  0
  2  1  1  0  0  0  0
  2 36  1  0  0  0  0
  2  3  1  0  0  0  0
  2 37  1  0  0  0  0
  3  4  2  0  0  0  0
  3  5  1  0  0  0  0
  5 38  1  0  0  0  0
  6  5  1  0  0  0  0
  6 39  1  0  0  0  0
  6  7  1  0  0  0  0
  6 11  1  0  0  0  0
  7  8  1  0  0  0  0
  7  9  1  0  0  0  0
  7 10  1  0  0  0  0
  8 40  1  0  0  0  0
  8 41  1  0  0  0  0
  8 42  1  0  0  0  0
  9 43  1  0  0  0  0
  9 44  1  0  0  0  0
  9 45  1  0  0  0  0
 10 46  1  0  0  0  0
 10 47  1  0  0  0  0
 10 48  1  0  0  0  0
 11 12  2  0  0  0  0
 11 13  1  0  0  0  0
 13 35  1  0  0  0  0
 14 13  1  0  0  0  0
 14 32  1  0  0  0  0
 14 49  1  0  0  0  0
 14 15  1  0  0  0  0
 15 16  2  0  0  0  0
 15 17  1  0  0  0  0
 17 50  1  0  0  0  0
 17 18  1  0  0  0  0
 18 51  1  0  0  0  0
 18 52  1  0  0  0  0
 18 19  1  0  0  0  0
 19 20  2  0  0  0  0
 19 31  1  0  0  0  0
 20 21  1  0  0  0  0
 20 22  1  0  0  0  0
 21 53  1  0  0  0  0
 22 54  1  0  0  0  0
 22 23  2  0  0  0  0
 23 30  1  0  0  0  0
 23 24  1  0  0  0  0
 24 25  2  0  0  0  0
 24 29  1  0  0  0  0
 25 26  1  0  0  0  0
 25 27  1  0  0  0  0
 26 55  1  0  0  0  0
 26 56  1  0  0  0  0
 26 57  1  0  0  0  0
 27 28  2  0  0  0  0
 28 58  1  0  0  0  0
 28 29  1  0  0  0  0
 30 59  1  0  0  0  0
 30 31  2  0  0  0  0
 31 60  1  0  0  0  0
 33 32  1  0  0  0  0
 32 61  1  0  0  0  0
 32 62  1  0  0  0  0
 33 35  1  0  0  0  0
 33 63  1  0  0  0  0
 33 34  1  0  0  0  0
 34 64  1  0  0  0  0
 35 65  1  0  0  0  0
 35 66  1  0  0  0  0
 36 67  1  0  0  0  0
 36 68  1  0  0  0  0
 36 37  1  0  0  0  0
 37 69  1  0  0  0  0
 37 70  1  0  0  0  0
M  ZZC   1 f1
M  ZZC   2 c1
M  ZZC   3 c2
M  ZZC   4 o1
M  ZZC   5 n1
M  ZZC   6 c3
M  ZZC   7 c4
M  ZZC   8 c5
M  ZZC   9 c6
M  ZZC  10 c7
M  ZZC  11 c8
M  ZZC  12 o2
M  ZZC  13 n2
M  ZZC  14 c9
M  ZZC  15 c10
M  ZZC  16 o3
M  ZZC  17 n3
M  ZZC  18 c11
M  ZZC  19 c12
M  ZZC  20 c13
M  ZZC  21 o4
M  ZZC  22 c14
M  ZZC  23 c15
M  ZZC  24 c16
M  ZZC  25 c17
M  ZZC  26 c18
M  ZZC  27 n4
M  ZZC  28 c19
M  ZZC  29 s1
M  ZZC  30 c20
M  ZZC  31 c21
M  ZZC  32 c22
M  ZZC  33 c23
M  ZZC  34 o5
M  ZZC  35 c24
M  ZZC  36 c25
M  ZZC  37 c26
M  ZZC  38 h11
M  ZZC  39 h31
M  ZZC  40 h51
M  ZZC  41 h52
M  ZZC  42 h53
M  ZZC  43 h61
M  ZZC  44 h62
M  ZZC  45 h63
M  ZZC  46 h71
M  ZZC  47 h72
M  ZZC  48 h73
M  ZZC  49 h91
M  ZZC  50 h01
M  ZZC  51 h111
M  ZZC  52 h112
M  ZZC  53 h41
M  ZZC  54 h141
M  ZZC  55 h181
M  ZZC  56 h182
M  ZZC  57 h183
M  ZZC  58 h191
M  ZZC  59 h201
M  ZZC  60 h211
M  ZZC  61 h221
M  ZZC  62 h222
M  ZZC  63 h231
M  ZZC  64 h02
M  ZZC  65 h241
M  ZZC  66 h242
M  ZZC  67 h251
M  ZZC  68 h252
M  ZZC  69 h261
M  ZZC  70 h262
M  ZZM   1 11
M  ZZI   1 90
M  ZZM   2 22
M  ZZI   2 109
M  ZZM   3 3
M  ZZI   3 121
M  ZZM   4 7
M  ZZI   4 81
M  ZZM   5 10
M  ZZI   5 211
M  ZZM   6 1
M  ZZI   6 113
M  ZZM   7 1
M  ZZI   7 110
M  ZZM   8 1
M  ZZI   8 111
M  ZZM   9 1
M  ZZI   9 111
M  ZZM  10 1
M  ZZI  10 111
M  ZZM  11 3
M  ZZI  11 121
M  ZZM  12 7
M  ZZI  12 81
M  ZZM  13 10
M  ZZI  13 192
M  ZZM  14 1
M  ZZI  14 113
M  ZZM  15 3
M  ZZI  15 121
M  ZZM  16 7
M  ZZI  16 81
M  ZZM  17 10
M  ZZI  17 211
M  ZZM  18 1
M  ZZI  18 112
M  ZZM  19 37
M  ZZI  19 124
M  ZZM  20 37
M  ZZI  20 124
M  ZZM  21 6
M  ZZI  21 62
M  ZZM  22 37
M  ZZI  22 125
M  ZZM  23 37
M  ZZI  23 124
M  ZZM  24 63
M  ZZI  24 104
M  ZZM  25 64
M  ZZI  25 105
M  ZZM  26 1
M  ZZI  26 111
M  ZZM  27 66
M  ZZI  27 222
M  ZZM  28 63
M  ZZI  28 104
M  ZZM  29 44
M  ZZI  29 248
M  ZZM  30 37
M  ZZI  30 125
M  ZZM  31 37
M  ZZI  31 125
M  ZZM  32 1
M  ZZI  32 112
M  ZZM  33 1
M  ZZI  33 113
M  ZZM  34 6
M  ZZI  34 60
M  ZZM  35 1
M  ZZI  35 112
M  ZZM  36 22
M  ZZI  36 109
M  ZZM  37 22
M  ZZI  37 109
M  ZZM  38 28
M  ZZI  38 11
M  ZZM  39 5
M  ZZI  39 1
M  ZZM  40 5
M  ZZI  40 1
M  ZZM  41 5
M  ZZI  41 1
M  ZZM  42 5
M  ZZI  42 1
M  ZZM  43 5
M  ZZI  43 1
M  ZZM  44 5
M  ZZI  44 1
M  ZZM  45 5
M  ZZI  45 1
M  ZZM  46 5
M  ZZI  46 1
M  ZZM  47 5
M  ZZI  47 1
M  ZZM  48 5
M  ZZI  48 1
M  ZZM  49 5
M  ZZI  49 1
M  ZZM  50 28
M  ZZI  50 11
M  ZZM  51 5
M  ZZI  51 1
M  ZZM  52 5
M  ZZI  52 1
M  ZZM  53 29
M  ZZI  53 27
M  ZZM  54 5
M  ZZI  54 1
M  ZZM  55 5
M  ZZI  55 1
M  ZZM  56 5
M  ZZI  56 1
M  ZZM  57 5
M  ZZI  57 1
M  ZZM  58 5
M  ZZI  58 1
M  ZZM  59 5
M  ZZI  59 1
M  ZZM  60 5
M  ZZI  60 1
M  ZZM  61 5
M  ZZI  61 1
M  ZZM  62 5
M  ZZI  62 1
M  ZZM  63 5
M  ZZI  63 1
M  ZZM  64 21
M  ZZI  64 20
M  ZZM  65 5
M  ZZI  65 1
M  ZZM  66 5
M  ZZI  66 1
M  ZZM  67 5
M  ZZI  67 1
M  ZZM  68 5
M  ZZI  68 1
M  ZZM  69 5
M  ZZI  69 1
M  ZZM  70 5
M  ZZI  70 1
M  END
> <IX>
1

> <NAME>
VHL_5EU1_26.pdb

> <Score>
-23.191512

> <Natom>
70

> <Nflex>
9

> <Hbond>
-8.482556

> <Hphob>
-6.431342

> <VwInt>
-33.399081

> <Dsolv>
20.540185

> <SolEl>
15.39746

> <Eintl>
8.349953

> <RecConf>
ND

> <projPath>
VHL_maps/

> <NAME_>
VHL_5EU1_26.pdb

$$$$
