VHL_5EHR_3.pdb
  MOLSOFT 04032206383D

 68 70  0  0  1  0  0  0  0  0999 V2000
   18.6254    2.2580   -4.1792 C   0  0  0  0  0  0  0  0  0  0  0  0
   18.2575    0.9452   -4.8146 C   0  0  0  0  0  0  0  0  0  0  0  0
   19.0877    0.2455   -5.3740 O   0  0  0  0  0  0  0  0  0  0  0  0
   16.9257    0.6281   -4.6583 N   0  0  0  0  0  0  0  0  0  0  0  0
   16.3059   -0.5776   -5.2131 C   0  0  2  0  0  0  0  0  0  0  0  0
   15.2609   -0.2251   -6.3163 C   0  0  0  0  0  0  0  0  0  0  0  0
   15.9842    0.3591   -7.5412 C   0  0  0  0  0  0  0  0  0  0  0  0
   14.2059    0.7965   -5.8485 C   0  0  0  0  0  0  0  0  0  0  0  0
   14.5162   -1.4811   -6.7686 C   0  0  0  0  0  0  0  0  0  0  0  0
   15.7074   -1.3067   -3.9944 C   0  0  0  0  0  0  0  0  0  0  0  0
   15.0244   -0.7029   -3.1755 O   0  0  0  0  0  0  0  0  0  0  0  0
   15.9962   -2.6641   -3.8343 N   0  0  0  0  0  0  0  0  0  0  0  0
   15.5667   -3.3825   -2.6458 C   0  0  2  0  0  0  0  0  0  0  0  0
   16.5456   -3.1107   -1.4977 C   0  0  0  0  0  0  0  0  0  0  0  0
   17.7326   -2.8790   -1.6866 O   0  0  0  0  0  0  0  0  0  0  0  0
   15.9851   -3.1932   -0.2346 N   0  0  0  0  0  0  0  0  0  0  0  0
   16.7711   -2.8893    0.9549 C   0  0  1  0  0  0  0  0  0  0  0  0
   16.8696   -1.3776    1.1648 C   0  0  0  0  0  0  0  0  0  0  0  0
   16.2296   -3.5942    2.1831 C   0  0  0  0  0  0  0  0  0  0  0  0
   15.0205   -3.2412    2.7817 C   0  0  0  0  0  0  0  0  0  0  0  0
   14.5616   -3.9022    3.9106 C   0  0  0  0  0  0  0  0  0  0  0  0
   15.2777   -4.9571    4.4728 C   0  0  0  0  0  0  0  0  0  0  0  0
   14.7819   -5.6794    5.6459 C   0  0  0  0  0  0  0  0  0  0  0  0
   13.5038   -6.1189    5.9858 C   0  0  0  0  0  0  0  0  0  0  0  0
   12.2524   -5.9601    5.2068 C   0  0  0  0  0  0  0  0  0  0  0  0
   13.4120   -6.7908    7.1891 N   0  0  0  0  0  0  0  0  0  0  0  0
   14.5949   -6.8558    7.7546 C   0  0  0  0  0  0  0  0  0  0  0  0
   15.8771   -6.1262    6.9013 S   0  0  0  0  0  0  0  0  0  0  0  0
   16.4833   -5.3081    3.8703 C   0  0  0  0  0  0  0  0  0  0  0  0
   16.9514   -4.6370    2.7556 C   0  0  0  0  0  0  0  0  0  0  0  0
   15.5941   -4.8423   -3.0586 C   0  0  0  0  0  0  0  0  0  0  0  0
   16.7018   -4.9218   -4.1010 C   0  0  1  0  0  0  0  0  0  0  0  0
   16.4161   -5.9375   -5.0645 O   0  0  0  0  0  0  0  0  0  0  0  0
   16.7475   -3.5310   -4.7295 C   0  0  0  0  0  0  0  0  0  0  0  0
   17.7731    2.9451   -4.1814 H   0  0  0  0  0  0  0  0  0  0  0  0
   19.4393    2.7197   -4.7457 H   0  0  0  0  0  0  0  0  0  0  0  0
   18.9499    2.0828   -3.1493 H   0  0  0  0  0  0  0  0  0  0  0  0
   16.3405    1.2334   -4.0904 H   0  0  0  0  0  0  0  0  0  0  0  0
   17.1007   -1.1872   -5.6515 H   0  0  0  0  0  0  0  0  0  0  0  0
   16.5002    1.2939   -7.3027 H   0  0  0  0  0  0  0  0  0  0  0  0
   15.2844    0.5782   -8.3536 H   0  0  0  0  0  0  0  0  0  0  0  0
   16.7302   -0.3376   -7.9369 H   0  0  0  0  0  0  0  0  0  0  0  0
   13.6154    0.4173   -5.0096 H   0  0  0  0  0  0  0  0  0  0  0  0
   13.4977    1.0314   -6.6505 H   0  0  0  0  0  0  0  0  0  0  0  0
   14.6554    1.7450   -5.5401 H   0  0  0  0  0  0  0  0  0  0  0  0
   13.7677   -1.2566   -7.5341 H   0  0  0  0  0  0  0  0  0  0  0  0
   13.9918   -1.9399   -5.9275 H   0  0  0  0  0  0  0  0  0  0  0  0
   15.2020   -2.2364   -7.1638 H   0  0  0  0  0  0  0  0  0  0  0  0
   14.5621   -3.0593   -2.3486 H   0  0  0  0  0  0  0  0  0  0  0  0
   14.9969   -3.3939   -0.1293 H   0  0  0  0  0  0  0  0  0  0  0  0
   17.7885   -3.2527    0.7686 H   0  0  0  0  0  0  0  0  0  0  0  0
   17.3557   -0.8921    0.3128 H   0  0  0  0  0  0  0  0  0  0  0  0
   17.4524   -1.1407    2.0607 H   0  0  0  0  0  0  0  0  0  0  0  0
   15.8842   -0.9138    1.2762 H   0  0  0  0  0  0  0  0  0  0  0  0
   14.4201   -2.4315    2.3776 H   0  0  0  0  0  0  0  0  0  0  0  0
   13.6279   -3.5719    4.3532 H   0  0  0  0  0  0  0  0  0  0  0  0
   11.9016   -4.9243    5.2288 H   0  0  0  0  0  0  0  0  0  0  0  0
   11.4534   -6.5823    5.6151 H   0  0  0  0  0  0  0  0  0  0  0  0
   12.4075   -6.2360    4.1608 H   0  0  0  0  0  0  0  0  0  0  0  0
   14.7548   -7.3396    8.7077 H   0  0  0  0  0  0  0  0  0  0  0  0
   17.0765   -6.1309    4.2576 H   0  0  0  0  0  0  0  0  0  0  0  0
   17.8983   -4.9498    2.3240 H   0  0  0  0  0  0  0  0  0  0  0  0
   15.7700   -5.5262   -2.2238 H   0  0  0  0  0  0  0  0  0  0  0  0
   14.6351   -5.1272   -3.4992 H   0  0  0  0  0  0  0  0  0  0  0  0
   17.6635   -5.1543   -3.6395 H   0  0  0  0  0  0  0  0  0  0  0  0
   16.3534   -6.7850   -4.5871 H   0  0  0  0  0  0  0  0  0  0  0  0
   16.3161   -3.5017   -5.7316 H   0  0  0  0  0  0  0  0  0  0  0  0
   17.7778   -3.1666   -4.7972 H   0  0  0  0  0  0  0  0  0  0  0  0
  1 35  1  0  0  0  0
  1 36  1  0  0  0  0
  1 37  1  0  0  0  0
  1  2  1  0  0  0  0
  2  3  2  0  0  0  0
  2  4  1  0  0  0  0
  4 38  1  0  0  0  0
  5  4  1  0  0  0  0
  5 39  1  0  0  0  0
  5  6  1  0  0  0  0
  5 10  1  0  0  0  0
  6  7  1  0  0  0  0
  6  8  1  0  0  0  0
  6  9  1  0  0  0  0
  7 40  1  0  0  0  0
  7 41  1  0  0  0  0
  7 42  1  0  0  0  0
  8 43  1  0  0  0  0
  8 44  1  0  0  0  0
  8 45  1  0  0  0  0
  9 46  1  0  0  0  0
  9 47  1  0  0  0  0
  9 48  1  0  0  0  0
 10 11  2  0  0  0  0
 10 12  1  0  0  0  0
 12 34  1  0  0  0  0
 13 12  1  0  0  0  0
 13 31  1  0  0  0  0
 13 49  1  0  0  0  0
 13 14  1  0  0  0  0
 14 15  2  0  0  0  0
 14 16  1  0  0  0  0
 16 50  1  0  0  0  0
 17 16  1  0  0  0  0
 17 51  1  0  0  0  0
 17 18  1  0  0  0  0
 17 19  1  0  0  0  0
 18 52  1  0  0  0  0
 18 53  1  0  0  0  0
 18 54  1  0  0  0  0
 19 20  1  0  0  0  0
 19 30  2  0  0  0  0
 20 55  1  0  0  0  0
 20 21  2  0  0  0  0
 21 56  1  0  0  0  0
 21 22  1  0  0  0  0
 22 29  2  0  0  0  0
 22 23  1  0  0  0  0
 23 24  2  0  0  0  0
 23 28  1  0  0  0  0
 24 25  1  0  0  0  0
 24 26  1  0  0  0  0
 25 57  1  0  0  0  0
 25 58  1  0  0  0  0
 25 59  1  0  0  0  0
 26 27  2  0  0  0  0
 27 60  1  0  0  0  0
 27 28  1  0  0  0  0
 29 61  1  0  0  0  0
 29 30  1  0  0  0  0
 30 62  1  0  0  0  0
 32 31  1  0  0  0  0
 31 63  1  0  0  0  0
 31 64  1  0  0  0  0
 32 34  1  0  0  0  0
 32 65  1  0  0  0  0
 32 33  1  0  0  0  0
 33 66  1  0  0  0  0
 34 67  1  0  0  0  0
 34 68  1  0  0  0  0
M  ZZC   1 c1
M  ZZC   2 c2
M  ZZC   3 o1
M  ZZC   4 n1
M  ZZC   5 c3
M  ZZC   6 c4
M  ZZC   7 c5
M  ZZC   8 c6
M  ZZC   9 c7
M  ZZC  10 c8
M  ZZC  11 o2
M  ZZC  12 n2
M  ZZC  13 c9
M  ZZC  14 c10
M  ZZC  15 o3
M  ZZC  16 n3
M  ZZC  17 c11
M  ZZC  18 c12
M  ZZC  19 c13
M  ZZC  20 c14
M  ZZC  21 c15
M  ZZC  22 c16
M  ZZC  23 c17
M  ZZC  24 c18
M  ZZC  25 c19
M  ZZC  26 n4
M  ZZC  27 c20
M  ZZC  28 s1
M  ZZC  29 c21
M  ZZC  30 c22
M  ZZC  31 c23
M  ZZC  32 c24
M  ZZC  33 o4
M  ZZC  34 c25
M  ZZC  35 h11
M  ZZC  36 h12
M  ZZC  37 h13
M  ZZC  38 h01
M  ZZC  39 h31
M  ZZC  40 h51
M  ZZC  41 h52
M  ZZC  42 h53
M  ZZC  43 h61
M  ZZC  44 h62
M  ZZC  45 h63
M  ZZC  46 h71
M  ZZC  47 h72
M  ZZC  48 h73
M  ZZC  49 h91
M  ZZC  50 h02
M  ZZC  51 h111
M  ZZC  52 h121
M  ZZC  53 h122
M  ZZC  54 h123
M  ZZC  55 h141
M  ZZC  56 h151
M  ZZC  57 h191
M  ZZC  58 h192
M  ZZC  59 h193
M  ZZC  60 h201
M  ZZC  61 h211
M  ZZC  62 h221
M  ZZC  63 h231
M  ZZC  64 h232
M  ZZC  65 h241
M  ZZC  66 h41
M  ZZC  67 h251
M  ZZC  68 h252
M  ZZM   1 1
M  ZZI   1 111
M  ZZM   2 3
M  ZZI   2 121
M  ZZM   3 7
M  ZZI   3 81
M  ZZM   4 10
M  ZZI   4 211
M  ZZM   5 1
M  ZZI   5 113
M  ZZM   6 1
M  ZZI   6 110
M  ZZM   7 1
M  ZZI   7 111
M  ZZM   8 1
M  ZZI   8 111
M  ZZM   9 1
M  ZZI   9 111
M  ZZM  10 3
M  ZZI  10 121
M  ZZM  11 7
M  ZZI  11 81
M  ZZM  12 10
M  ZZI  12 192
M  ZZM  13 1
M  ZZI  13 113
M  ZZM  14 3
M  ZZI  14 121
M  ZZM  15 7
M  ZZI  15 81
M  ZZM  16 10
M  ZZI  16 211
M  ZZM  17 1
M  ZZI  17 113
M  ZZM  18 1
M  ZZI  18 111
M  ZZM  19 37
M  ZZI  19 124
M  ZZM  20 37
M  ZZI  20 125
M  ZZM  21 37
M  ZZI  21 125
M  ZZM  22 37
M  ZZI  22 124
M  ZZM  23 63
M  ZZI  23 104
M  ZZM  24 64
M  ZZI  24 105
M  ZZM  25 1
M  ZZI  25 111
M  ZZM  26 66
M  ZZI  26 222
M  ZZM  27 63
M  ZZI  27 104
M  ZZM  28 44
M  ZZI  28 248
M  ZZM  29 37
M  ZZI  29 125
M  ZZM  30 37
M  ZZI  30 125
M  ZZM  31 1
M  ZZI  31 112
M  ZZM  32 1
M  ZZI  32 113
M  ZZM  33 6
M  ZZI  33 60
M  ZZM  34 1
M  ZZI  34 112
M  ZZM  35 5
M  ZZI  35 1
M  ZZM  36 5
M  ZZI  36 1
M  ZZM  37 5
M  ZZI  37 1
M  ZZM  38 28
M  ZZI  38 11
M  ZZM  39 5
M  ZZI  39 1
M  ZZM  40 5
M  ZZI  40 1
M  ZZM  41 5
M  ZZI  41 1
M  ZZM  42 5
M  ZZI  42 1
M  ZZM  43 5
M  ZZI  43 1
M  ZZM  44 5
M  ZZI  44 1
M  ZZM  45 5
M  ZZI  45 1
M  ZZM  46 5
M  ZZI  46 1
M  ZZM  47 5
M  ZZI  47 1
M  ZZM  48 5
M  ZZI  48 1
M  ZZM  49 5
M  ZZI  49 1
M  ZZM  50 28
M  ZZI  50 11
M  ZZM  51 5
M  ZZI  51 1
M  ZZM  52 5
M  ZZI  52 1
M  ZZM  53 5
M  ZZI  53 1
M  ZZM  54 5
M  ZZI  54 1
M  ZZM  55 5
M  ZZI  55 1
M  ZZM  56 5
M  ZZI  56 1
M  ZZM  57 5
M  ZZI  57 1
M  ZZM  58 5
M  ZZI  58 1
M  ZZM  59 5
M  ZZI  59 1
M  ZZM  60 5
M  ZZI  60 1
M  ZZM  61 5
M  ZZI  61 1
M  ZZM  62 5
M  ZZI  62 1
M  ZZM  63 5
M  ZZI  63 1
M  ZZM  64 5
M  ZZI  64 1
M  ZZM  65 5
M  ZZI  65 1
M  ZZM  66 21
M  ZZI  66 20
M  ZZM  67 5
M  ZZI  67 1
M  ZZM  68 5
M  ZZI  68 1
M  END
> <IX>
1

> <NAME>
VHL_5EHR_3.pdb

> <Score>
-13.576565

> <Natom>
68

> <Nflex>
8

> <Hbond>
-4.357096

> <Hphob>
-6.01197

> <VwInt>
-26.956535

> <Dsolv>
16.075154

> <SolEl>
13.401426

> <Eintl>
4.550228

> <RecConf>
ND

> <projPath>
VHL_maps/

> <NAME_>
VHL_5EHR_3.pdb

$$$$
