VHL_5EU1_19.pdb
  MOLSOFT 04032206423D

 70 73  0  0  1  0  0  0  0  0999 V2000
   17.7250   -7.0033   -3.4872 F   0  0  0  0  0  0  0  0  0  0  0  0
   17.3441   -6.1302   -4.4881 C   0  0  0  0  0  0  0  0  0  0  0  0
   16.5024   -4.9892   -4.0346 C   0  0  0  0  0  0  0  0  0  0  0  0
   15.3331   -5.1682   -3.7311 O   0  0  0  0  0  0  0  0  0  0  0  0
   17.1343   -3.7635   -3.9628 N   0  0  0  0  0  0  0  0  0  0  0  0
   16.3923   -2.5350   -3.6644 C   0  0  1  0  0  0  0  0  0  0  0  0
   16.6560   -1.9749   -2.2350 C   0  0  0  0  0  0  0  0  0  0  0  0
   16.4190   -3.0776   -1.1883 C   0  0  0  0  0  0  0  0  0  0  0  0
   15.6753   -0.8307   -1.9348 C   0  0  0  0  0  0  0  0  0  0  0  0
   18.0857   -1.4423   -2.0613 C   0  0  0  0  0  0  0  0  0  0  0  0
   16.7318   -1.5583   -4.8100 C   0  0  0  0  0  0  0  0  0  0  0  0
   17.8964   -1.3215   -5.1081 O   0  0  0  0  0  0  0  0  0  0  0  0
   15.6585   -1.0019   -5.5085 N   0  0  0  0  0  0  0  0  0  0  0  0
   15.8657   -0.2017   -6.7087 C   0  0  2  0  0  0  0  0  0  0  0  0
   16.1598    1.2647   -6.3655 C   0  0  0  0  0  0  0  0  0  0  0  0
   15.3702    1.9815   -5.7653 O   0  0  0  0  0  0  0  0  0  0  0  0
   17.4051    1.6897   -6.7849 N   0  0  0  0  0  0  0  0  0  0  0  0
   17.9052    3.0278   -6.5166 C   0  0  0  0  0  0  0  0  0  0  0  0
   19.3128    3.2700   -7.0162 C   0  0  0  0  0  0  0  0  0  0  0  0
   20.2685    2.2629   -7.0518 C   0  0  0  0  0  0  0  0  0  0  0  0
   19.9281    1.0008   -6.6217 O   0  0  0  0  0  0  0  0  0  0  0  0
   21.5573    2.4735   -7.4964 C   0  0  0  0  0  0  0  0  0  0  0  0
   21.9576    3.7366   -7.8942 C   0  0  0  0  0  0  0  0  0  0  0  0
   23.3354    3.9425   -8.3085 C   0  0  0  0  0  0  0  0  0  0  0  0
   24.4607    4.2502   -7.5575 C   0  0  0  0  0  0  0  0  0  0  0  0
   24.5109    4.5103   -6.1007 C   0  0  0  0  0  0  0  0  0  0  0  0
   25.6432    4.2888   -8.2686 N   0  0  0  0  0  0  0  0  0  0  0  0
   25.4054    4.0310   -9.5352 C   0  0  0  0  0  0  0  0  0  0  0  0
   23.7778    3.7338   -9.9541 S   0  0  0  0  0  0  0  0  0  0  0  0
   21.0263    4.7699   -7.8544 C   0  0  0  0  0  0  0  0  0  0  0  0
   19.7233    4.5395   -7.4243 C   0  0  0  0  0  0  0  0  0  0  0  0
   14.5543   -0.3419   -7.4643 C   0  0  0  0  0  0  0  0  0  0  0  0
   13.5047   -0.5124   -6.3766 C   0  0  1  0  0  0  0  0  0  0  0  0
   12.3951   -1.2824   -6.8403 O   0  0  0  0  0  0  0  0  0  0  0  0
   14.2468   -1.2692   -5.2888 C   0  0  0  0  0  0  0  0  0  0  0  0
   17.0466   -6.8194   -5.7894 C   0  0  0  0  0  0  0  0  0  0  0  0
   18.3059   -6.0187   -5.6462 C   0  0  0  0  0  0  0  0  0  0  0  0
   18.1198   -3.6963   -4.1988 H   0  0  0  0  0  0  0  0  0  0  0  0
   15.3341   -2.7968   -3.7191 H   0  0  0  0  0  0  0  0  0  0  0  0
   16.5057   -2.6875   -0.1690 H   0  0  0  0  0  0  0  0  0  0  0  0
   17.1459   -3.8901   -1.2787 H   0  0  0  0  0  0  0  0  0  0  0  0
   15.4187   -3.5134   -1.2835 H   0  0  0  0  0  0  0  0  0  0  0  0
   15.7987   -0.0030   -2.6409 H   0  0  0  0  0  0  0  0  0  0  0  0
   15.8315   -0.4229   -0.9305 H   0  0  0  0  0  0  0  0  0  0  0  0
   14.6334   -1.1586   -2.0037 H   0  0  0  0  0  0  0  0  0  0  0  0
   18.2836   -1.1603   -1.0224 H   0  0  0  0  0  0  0  0  0  0  0  0
   18.2694   -0.5514   -2.6691 H   0  0  0  0  0  0  0  0  0  0  0  0
   18.8265   -2.1936   -2.3378 H   0  0  0  0  0  0  0  0  0  0  0  0
   16.6932   -0.6190   -7.2942 H   0  0  0  0  0  0  0  0  0  0  0  0
   18.0571    1.0074   -7.1674 H   0  0  0  0  0  0  0  0  0  0  0  0
   17.2083    3.7294   -6.9884 H   0  0  0  0  0  0  0  0  0  0  0  0
   17.8662    3.1954   -5.4348 H   0  0  0  0  0  0  0  0  0  0  0  0
   20.3921    0.3732   -7.2041 H   0  0  0  0  0  0  0  0  0  0  0  0
   22.2564    1.6461   -7.5217 H   0  0  0  0  0  0  0  0  0  0  0  0
   23.9137    5.3895   -5.8429 H   0  0  0  0  0  0  0  0  0  0  0  0
   25.5373    4.6902   -5.7678 H   0  0  0  0  0  0  0  0  0  0  0  0
   24.1253    3.6557   -5.5390 H   0  0  0  0  0  0  0  0  0  0  0  0
   26.1898    4.0070  -10.2781 H   0  0  0  0  0  0  0  0  0  0  0  0
   21.3131    5.7717   -8.1608 H   0  0  0  0  0  0  0  0  0  0  0  0
   19.0229    5.3697   -7.4074 H   0  0  0  0  0  0  0  0  0  0  0  0
   14.3326    0.5039   -8.1237 H   0  0  0  0  0  0  0  0  0  0  0  0
   14.5914   -1.2429   -8.0857 H   0  0  0  0  0  0  0  0  0  0  0  0
   13.1422    0.4530   -6.0066 H   0  0  0  0  0  0  0  0  0  0  0  0
   11.9281   -0.7655   -7.5222 H   0  0  0  0  0  0  0  0  0  0  0  0
   14.0654   -2.3472   -5.3498 H   0  0  0  0  0  0  0  0  0  0  0  0
   13.9516   -0.9320   -4.2914 H   0  0  0  0  0  0  0  0  0  0  0  0
   17.1268   -7.8987   -5.8092 H   0  0  0  0  0  0  0  0  0  0  0  0
   16.2488   -6.4217   -6.3949 H   0  0  0  0  0  0  0  0  0  0  0  0
   18.3755   -5.0818   -6.1848 H   0  0  0  0  0  0  0  0  0  0  0  0
   19.2434   -6.5545   -5.5672 H   0  0  0  0  0  0  0  0  0  0  0  0
  2  1  1  0  0  0  0
  2 36  1  0  0  0  0
  2  3  1  0  0  0  0
  2 37  1  0  0  0  0
  3  4  2  0  0  0  0
  3  5  1  0  0  0  0
  5 38  1  0  0  0  0
  6  5  1  0  0  0  0
  6 39  1  0  0  0  0
  6  7  1  0  0  0  0
  6 11  1  0  0  0  0
  7  8  1  0  0  0  0
  7  9  1  0  0  0  0
  7 10  1  0  0  0  0
  8 40  1  0  0  0  0
  8 41  1  0  0  0  0
  8 42  1  0  0  0  0
  9 43  1  0  0  0  0
  9 44  1  0  0  0  0
  9 45  1  0  0  0  0
 10 46  1  0  0  0  0
 10 47  1  0  0  0  0
 10 48  1  0  0  0  0
 11 12  2  0  0  0  0
 11 13  1  0  0  0  0
 13 35  1  0  0  0  0
 14 13  1  0  0  0  0
 14 32  1  0  0  0  0
 14 49  1  0  0  0  0
 14 15  1  0  0  0  0
 15 16  2  0  0  0  0
 15 17  1  0  0  0  0
 17 50  1  0  0  0  0
 17 18  1  0  0  0  0
 18 51  1  0  0  0  0
 18 52  1  0  0  0  0
 18 19  1  0  0  0  0
 19 20  2  0  0  0  0
 19 31  1  0  0  0  0
 20 21  1  0  0  0  0
 20 22  1  0  0  0  0
 21 53  1  0  0  0  0
 22 54  1  0  0  0  0
 22 23  2  0  0  0  0
 23 30  1  0  0  0  0
 23 24  1  0  0  0  0
 24 25  2  0  0  0  0
 24 29  1  0  0  0  0
 25 26  1  0  0  0  0
 25 27  1  0  0  0  0
 26 55  1  0  0  0  0
 26 56  1  0  0  0  0
 26 57  1  0  0  0  0
 27 28  2  0  0  0  0
 28 58  1  0  0  0  0
 28 29  1  0  0  0  0
 30 59  1  0  0  0  0
 30 31  2  0  0  0  0
 31 60  1  0  0  0  0
 33 32  1  0  0  0  0
 32 61  1  0  0  0  0
 32 62  1  0  0  0  0
 33 35  1  0  0  0  0
 33 63  1  0  0  0  0
 33 34  1  0  0  0  0
 34 64  1  0  0  0  0
 35 65  1  0  0  0  0
 35 66  1  0  0  0  0
 36 67  1  0  0  0  0
 36 68  1  0  0  0  0
 36 37  1  0  0  0  0
 37 69  1  0  0  0  0
 37 70  1  0  0  0  0
M  ZZC   1 f1
M  ZZC   2 c1
M  ZZC   3 c2
M  ZZC   4 o1
M  ZZC   5 n1
M  ZZC   6 c3
M  ZZC   7 c4
M  ZZC   8 c5
M  ZZC   9 c6
M  ZZC  10 c7
M  ZZC  11 c8
M  ZZC  12 o2
M  ZZC  13 n2
M  ZZC  14 c9
M  ZZC  15 c10
M  ZZC  16 o3
M  ZZC  17 n3
M  ZZC  18 c11
M  ZZC  19 c12
M  ZZC  20 c13
M  ZZC  21 o4
M  ZZC  22 c14
M  ZZC  23 c15
M  ZZC  24 c16
M  ZZC  25 c17
M  ZZC  26 c18
M  ZZC  27 n4
M  ZZC  28 c19
M  ZZC  29 s1
M  ZZC  30 c20
M  ZZC  31 c21
M  ZZC  32 c22
M  ZZC  33 c23
M  ZZC  34 o5
M  ZZC  35 c24
M  ZZC  36 c25
M  ZZC  37 c26
M  ZZC  38 h11
M  ZZC  39 h31
M  ZZC  40 h51
M  ZZC  41 h52
M  ZZC  42 h53
M  ZZC  43 h61
M  ZZC  44 h62
M  ZZC  45 h63
M  ZZC  46 h71
M  ZZC  47 h72
M  ZZC  48 h73
M  ZZC  49 h91
M  ZZC  50 h01
M  ZZC  51 h111
M  ZZC  52 h112
M  ZZC  53 h41
M  ZZC  54 h141
M  ZZC  55 h181
M  ZZC  56 h182
M  ZZC  57 h183
M  ZZC  58 h191
M  ZZC  59 h201
M  ZZC  60 h211
M  ZZC  61 h221
M  ZZC  62 h222
M  ZZC  63 h231
M  ZZC  64 h02
M  ZZC  65 h241
M  ZZC  66 h242
M  ZZC  67 h251
M  ZZC  68 h252
M  ZZC  69 h261
M  ZZC  70 h262
M  ZZM   1 11
M  ZZI   1 90
M  ZZM   2 22
M  ZZI   2 109
M  ZZM   3 3
M  ZZI   3 121
M  ZZM   4 7
M  ZZI   4 81
M  ZZM   5 10
M  ZZI   5 211
M  ZZM   6 1
M  ZZI   6 113
M  ZZM   7 1
M  ZZI   7 110
M  ZZM   8 1
M  ZZI   8 111
M  ZZM   9 1
M  ZZI   9 111
M  ZZM  10 1
M  ZZI  10 111
M  ZZM  11 3
M  ZZI  11 121
M  ZZM  12 7
M  ZZI  12 81
M  ZZM  13 10
M  ZZI  13 192
M  ZZM  14 1
M  ZZI  14 113
M  ZZM  15 3
M  ZZI  15 121
M  ZZM  16 7
M  ZZI  16 81
M  ZZM  17 10
M  ZZI  17 211
M  ZZM  18 1
M  ZZI  18 112
M  ZZM  19 37
M  ZZI  19 124
M  ZZM  20 37
M  ZZI  20 124
M  ZZM  21 6
M  ZZI  21 62
M  ZZM  22 37
M  ZZI  22 125
M  ZZM  23 37
M  ZZI  23 124
M  ZZM  24 63
M  ZZI  24 104
M  ZZM  25 64
M  ZZI  25 105
M  ZZM  26 1
M  ZZI  26 111
M  ZZM  27 66
M  ZZI  27 222
M  ZZM  28 63
M  ZZI  28 104
M  ZZM  29 44
M  ZZI  29 248
M  ZZM  30 37
M  ZZI  30 125
M  ZZM  31 37
M  ZZI  31 125
M  ZZM  32 1
M  ZZI  32 112
M  ZZM  33 1
M  ZZI  33 113
M  ZZM  34 6
M  ZZI  34 60
M  ZZM  35 1
M  ZZI  35 112
M  ZZM  36 22
M  ZZI  36 109
M  ZZM  37 22
M  ZZI  37 109
M  ZZM  38 28
M  ZZI  38 11
M  ZZM  39 5
M  ZZI  39 1
M  ZZM  40 5
M  ZZI  40 1
M  ZZM  41 5
M  ZZI  41 1
M  ZZM  42 5
M  ZZI  42 1
M  ZZM  43 5
M  ZZI  43 1
M  ZZM  44 5
M  ZZI  44 1
M  ZZM  45 5
M  ZZI  45 1
M  ZZM  46 5
M  ZZI  46 1
M  ZZM  47 5
M  ZZI  47 1
M  ZZM  48 5
M  ZZI  48 1
M  ZZM  49 5
M  ZZI  49 1
M  ZZM  50 28
M  ZZI  50 11
M  ZZM  51 5
M  ZZI  51 1
M  ZZM  52 5
M  ZZI  52 1
M  ZZM  53 29
M  ZZI  53 27
M  ZZM  54 5
M  ZZI  54 1
M  ZZM  55 5
M  ZZI  55 1
M  ZZM  56 5
M  ZZI  56 1
M  ZZM  57 5
M  ZZI  57 1
M  ZZM  58 5
M  ZZI  58 1
M  ZZM  59 5
M  ZZI  59 1
M  ZZM  60 5
M  ZZI  60 1
M  ZZM  61 5
M  ZZI  61 1
M  ZZM  62 5
M  ZZI  62 1
M  ZZM  63 5
M  ZZI  63 1
M  ZZM  64 21
M  ZZI  64 20
M  ZZM  65 5
M  ZZI  65 1
M  ZZM  66 5
M  ZZI  66 1
M  ZZM  67 5
M  ZZI  67 1
M  ZZM  68 5
M  ZZI  68 1
M  ZZM  69 5
M  ZZI  69 1
M  ZZM  70 5
M  ZZI  70 1
M  END
> <IX>
1

> <NAME>
VHL_5EU1_19.pdb

> <Score>
-18.13956

> <Natom>
70

> <Nflex>
9

> <Hbond>
-7.177633

> <Hphob>
-6.280794

> <VwInt>
-33.575933

> <Dsolv>
20.583162

> <SolEl>
17.624141

> <Eintl>
8.891021

> <RecConf>
ND

> <projPath>
VHL_maps/

> <NAME_>
VHL_5EU1_19.pdb

$$$$
