VHL_5EHR_14.pdb
  MOLSOFT 04032206403D

 68 70  0  0  1  0  0  0  0  0999 V2000
   15.5607   -4.3808  -15.4601 C   0  0  0  0  0  0  0  0  0  0  0  0
   15.1378   -3.8017  -16.7791 C   0  0  0  0  0  0  0  0  0  0  0  0
   15.3144   -4.4084  -17.8250 O   0  0  0  0  0  0  0  0  0  0  0  0
   14.5876   -2.5382  -16.6855 N   0  0  0  0  0  0  0  0  0  0  0  0
   14.1300   -1.8112  -17.8740 C   0  0  2  0  0  0  0  0  0  0  0  0
   15.1369   -0.7110  -18.3313 C   0  0  0  0  0  0  0  0  0  0  0  0
   15.2897    0.4092  -17.2890 C   0  0  0  0  0  0  0  0  0  0  0  0
   14.6728   -0.0681  -19.6468 C   0  0  0  0  0  0  0  0  0  0  0  0
   16.5194   -1.3353  -18.5843 C   0  0  0  0  0  0  0  0  0  0  0  0
   12.7518   -1.2328  -17.5233 C   0  0  0  0  0  0  0  0  0  0  0  0
   12.5849   -0.6082  -16.4852 O   0  0  0  0  0  0  0  0  0  0  0  0
   11.7117   -1.4294  -18.4317 N   0  0  0  0  0  0  0  0  0  0  0  0
   10.4620   -0.6831  -18.3139 C   0  0  2  0  0  0  0  0  0  0  0  0
    9.5664   -1.1009  -17.1396 C   0  0  0  0  0  0  0  0  0  0  0  0
    9.8721   -1.9671  -16.3322 O   0  0  0  0  0  0  0  0  0  0  0  0
    8.4060   -0.3517  -17.0688 N   0  0  0  0  0  0  0  0  0  0  0  0
    7.3865   -0.5233  -16.0475 C   0  0  1  0  0  0  0  0  0  0  0  0
    7.7639    0.2240  -14.7691 C   0  0  0  0  0  0  0  0  0  0  0  0
    6.0404   -0.0866  -16.5966 C   0  0  0  0  0  0  0  0  0  0  0  0
    5.8047    1.2227  -17.0215 C   0  0  0  0  0  0  0  0  0  0  0  0
    4.6073    1.5783  -17.6212 C   0  0  0  0  0  0  0  0  0  0  0  0
    3.6020    0.6382  -17.8032 C   0  0  0  0  0  0  0  0  0  0  0  0
    2.3683    0.9902  -18.4885 C   0  0  0  0  0  0  0  0  0  0  0  0
    2.0618    0.9909  -19.8419 C   0  0  0  0  0  0  0  0  0  0  0  0
    2.9730    0.6358  -20.9536 C   0  0  0  0  0  0  0  0  0  0  0  0
    0.7656    1.3631  -20.1457 N   0  0  0  0  0  0  0  0  0  0  0  0
    0.1245    1.6747  -19.0414 C   0  0  0  0  0  0  0  0  0  0  0  0
    0.9994    1.4974  -17.5870 S   0  0  0  0  0  0  0  0  0  0  0  0
    3.8114   -0.6562  -17.3437 C   0  0  0  0  0  0  0  0  0  0  0  0
    5.0125   -1.0131  -16.7513 C   0  0  0  0  0  0  0  0  0  0  0  0
    9.7702   -0.8921  -19.6594 C   0  0  0  0  0  0  0  0  0  0  0  0
   10.2999   -2.2332  -20.1291 C   0  0  1  0  0  0  0  0  0  0  0  0
   10.2128   -2.3564  -21.5471 O   0  0  0  0  0  0  0  0  0  0  0  0
   11.7421   -2.2063  -19.6587 C   0  0  0  0  0  0  0  0  0  0  0  0
   15.1309   -3.8256  -14.6233 H   0  0  0  0  0  0  0  0  0  0  0  0
   16.6506   -4.3440  -15.3961 H   0  0  0  0  0  0  0  0  0  0  0  0
   15.2282   -5.4202  -15.3939 H   0  0  0  0  0  0  0  0  0  0  0  0
   14.4671   -2.1029  -15.7711 H   0  0  0  0  0  0  0  0  0  0  0  0
   14.0266   -2.5437  -18.6777 H   0  0  0  0  0  0  0  0  0  0  0  0
   14.3903    1.0255  -17.2224 H   0  0  0  0  0  0  0  0  0  0  0  0
   16.1076    1.0880  -17.5503 H   0  0  0  0  0  0  0  0  0  0  0  0
   15.4961    0.0138  -16.2901 H   0  0  0  0  0  0  0  0  0  0  0  0
   15.3762    0.6996  -19.9841 H   0  0  0  0  0  0  0  0  0  0  0  0
   13.6978    0.4168  -19.5318 H   0  0  0  0  0  0  0  0  0  0  0  0
   14.5701   -0.8041  -20.4501 H   0  0  0  0  0  0  0  0  0  0  0  0
   16.9610   -1.7403  -17.6692 H   0  0  0  0  0  0  0  0  0  0  0  0
   17.2262   -0.5969  -18.9768 H   0  0  0  0  0  0  0  0  0  0  0  0
   16.4636   -2.1486  -19.3148 H   0  0  0  0  0  0  0  0  0  0  0  0
   10.7064    0.3735  -18.1771 H   0  0  0  0  0  0  0  0  0  0  0  0
    8.2689    0.3916  -17.7428 H   0  0  0  0  0  0  0  0  0  0  0  0
    7.3506   -1.5913  -15.8065 H   0  0  0  0  0  0  0  0  0  0  0  0
    8.7084   -0.1475  -14.3588 H   0  0  0  0  0  0  0  0  0  0  0  0
    6.9938    0.1081  -13.9998 H   0  0  0  0  0  0  0  0  0  0  0  0
    7.8967    1.2937  -14.9535 H   0  0  0  0  0  0  0  0  0  0  0  0
    6.5733    1.9811  -16.9110 H   0  0  0  0  0  0  0  0  0  0  0  0
    4.4608    2.6006  -17.9572 H   0  0  0  0  0  0  0  0  0  0  0  0
    3.7933    1.3557  -21.0253 H   0  0  0  0  0  0  0  0  0  0  0  0
    2.4448    0.6341  -21.9116 H   0  0  0  0  0  0  0  0  0  0  0  0
    3.3993   -0.3605  -20.8060 H   0  0  0  0  0  0  0  0  0  0  0  0
   -0.8999    2.0186  -19.0426 H   0  0  0  0  0  0  0  0  0  0  0  0
    3.0390   -1.4100  -17.4656 H   0  0  0  0  0  0  0  0  0  0  0  0
    5.1501   -2.0420  -16.4304 H   0  0  0  0  0  0  0  0  0  0  0  0
    8.6762   -0.8844  -19.6244 H   0  0  0  0  0  0  0  0  0  0  0  0
   10.0649   -0.1063  -20.3651 H   0  0  0  0  0  0  0  0  0  0  0  0
    9.7532   -3.0590  -19.6588 H   0  0  0  0  0  0  0  0  0  0  0  0
    9.2698   -2.3284  -21.7868 H   0  0  0  0  0  0  0  0  0  0  0  0
   12.3909   -1.7049  -20.3834 H   0  0  0  0  0  0  0  0  0  0  0  0
   12.1456   -3.2091  -19.4947 H   0  0  0  0  0  0  0  0  0  0  0  0
  1 35  1  0  0  0  0
  1 36  1  0  0  0  0
  1 37  1  0  0  0  0
  1  2  1  0  0  0  0
  2  3  2  0  0  0  0
  2  4  1  0  0  0  0
  4 38  1  0  0  0  0
  5  4  1  0  0  0  0
  5 39  1  0  0  0  0
  5  6  1  0  0  0  0
  5 10  1  0  0  0  0
  6  7  1  0  0  0  0
  6  8  1  0  0  0  0
  6  9  1  0  0  0  0
  7 40  1  0  0  0  0
  7 41  1  0  0  0  0
  7 42  1  0  0  0  0
  8 43  1  0  0  0  0
  8 44  1  0  0  0  0
  8 45  1  0  0  0  0
  9 46  1  0  0  0  0
  9 47  1  0  0  0  0
  9 48  1  0  0  0  0
 10 11  2  0  0  0  0
 10 12  1  0  0  0  0
 12 34  1  0  0  0  0
 13 12  1  0  0  0  0
 13 31  1  0  0  0  0
 13 49  1  0  0  0  0
 13 14  1  0  0  0  0
 14 15  2  0  0  0  0
 14 16  1  0  0  0  0
 16 50  1  0  0  0  0
 17 16  1  0  0  0  0
 17 51  1  0  0  0  0
 17 18  1  0  0  0  0
 17 19  1  0  0  0  0
 18 52  1  0  0  0  0
 18 53  1  0  0  0  0
 18 54  1  0  0  0  0
 19 20  1  0  0  0  0
 19 30  2  0  0  0  0
 20 55  1  0  0  0  0
 20 21  2  0  0  0  0
 21 56  1  0  0  0  0
 21 22  1  0  0  0  0
 22 29  2  0  0  0  0
 22 23  1  0  0  0  0
 23 24  2  0  0  0  0
 23 28  1  0  0  0  0
 24 25  1  0  0  0  0
 24 26  1  0  0  0  0
 25 57  1  0  0  0  0
 25 58  1  0  0  0  0
 25 59  1  0  0  0  0
 26 27  2  0  0  0  0
 27 60  1  0  0  0  0
 27 28  1  0  0  0  0
 29 61  1  0  0  0  0
 29 30  1  0  0  0  0
 30 62  1  0  0  0  0
 32 31  1  0  0  0  0
 31 63  1  0  0  0  0
 31 64  1  0  0  0  0
 32 34  1  0  0  0  0
 32 65  1  0  0  0  0
 32 33  1  0  0  0  0
 33 66  1  0  0  0  0
 34 67  1  0  0  0  0
 34 68  1  0  0  0  0
M  ZZC   1 c1
M  ZZC   2 c2
M  ZZC   3 o1
M  ZZC   4 n1
M  ZZC   5 c3
M  ZZC   6 c4
M  ZZC   7 c5
M  ZZC   8 c6
M  ZZC   9 c7
M  ZZC  10 c8
M  ZZC  11 o2
M  ZZC  12 n2
M  ZZC  13 c9
M  ZZC  14 c10
M  ZZC  15 o3
M  ZZC  16 n3
M  ZZC  17 c11
M  ZZC  18 c12
M  ZZC  19 c13
M  ZZC  20 c14
M  ZZC  21 c15
M  ZZC  22 c16
M  ZZC  23 c17
M  ZZC  24 c18
M  ZZC  25 c19
M  ZZC  26 n4
M  ZZC  27 c20
M  ZZC  28 s1
M  ZZC  29 c21
M  ZZC  30 c22
M  ZZC  31 c23
M  ZZC  32 c24
M  ZZC  33 o4
M  ZZC  34 c25
M  ZZC  35 h11
M  ZZC  36 h12
M  ZZC  37 h13
M  ZZC  38 h01
M  ZZC  39 h31
M  ZZC  40 h51
M  ZZC  41 h52
M  ZZC  42 h53
M  ZZC  43 h61
M  ZZC  44 h62
M  ZZC  45 h63
M  ZZC  46 h71
M  ZZC  47 h72
M  ZZC  48 h73
M  ZZC  49 h91
M  ZZC  50 h02
M  ZZC  51 h111
M  ZZC  52 h121
M  ZZC  53 h122
M  ZZC  54 h123
M  ZZC  55 h141
M  ZZC  56 h151
M  ZZC  57 h191
M  ZZC  58 h192
M  ZZC  59 h193
M  ZZC  60 h201
M  ZZC  61 h211
M  ZZC  62 h221
M  ZZC  63 h231
M  ZZC  64 h232
M  ZZC  65 h241
M  ZZC  66 h41
M  ZZC  67 h251
M  ZZC  68 h252
M  ZZM   1 1
M  ZZI   1 111
M  ZZM   2 3
M  ZZI   2 121
M  ZZM   3 7
M  ZZI   3 81
M  ZZM   4 10
M  ZZI   4 211
M  ZZM   5 1
M  ZZI   5 113
M  ZZM   6 1
M  ZZI   6 110
M  ZZM   7 1
M  ZZI   7 111
M  ZZM   8 1
M  ZZI   8 111
M  ZZM   9 1
M  ZZI   9 111
M  ZZM  10 3
M  ZZI  10 121
M  ZZM  11 7
M  ZZI  11 81
M  ZZM  12 10
M  ZZI  12 192
M  ZZM  13 1
M  ZZI  13 113
M  ZZM  14 3
M  ZZI  14 121
M  ZZM  15 7
M  ZZI  15 81
M  ZZM  16 10
M  ZZI  16 211
M  ZZM  17 1
M  ZZI  17 113
M  ZZM  18 1
M  ZZI  18 111
M  ZZM  19 37
M  ZZI  19 124
M  ZZM  20 37
M  ZZI  20 125
M  ZZM  21 37
M  ZZI  21 125
M  ZZM  22 37
M  ZZI  22 124
M  ZZM  23 63
M  ZZI  23 104
M  ZZM  24 64
M  ZZI  24 105
M  ZZM  25 1
M  ZZI  25 111
M  ZZM  26 66
M  ZZI  26 222
M  ZZM  27 63
M  ZZI  27 104
M  ZZM  28 44
M  ZZI  28 248
M  ZZM  29 37
M  ZZI  29 125
M  ZZM  30 37
M  ZZI  30 125
M  ZZM  31 1
M  ZZI  31 112
M  ZZM  32 1
M  ZZI  32 113
M  ZZM  33 6
M  ZZI  33 60
M  ZZM  34 1
M  ZZI  34 112
M  ZZM  35 5
M  ZZI  35 1
M  ZZM  36 5
M  ZZI  36 1
M  ZZM  37 5
M  ZZI  37 1
M  ZZM  38 28
M  ZZI  38 11
M  ZZM  39 5
M  ZZI  39 1
M  ZZM  40 5
M  ZZI  40 1
M  ZZM  41 5
M  ZZI  41 1
M  ZZM  42 5
M  ZZI  42 1
M  ZZM  43 5
M  ZZI  43 1
M  ZZM  44 5
M  ZZI  44 1
M  ZZM  45 5
M  ZZI  45 1
M  ZZM  46 5
M  ZZI  46 1
M  ZZM  47 5
M  ZZI  47 1
M  ZZM  48 5
M  ZZI  48 1
M  ZZM  49 5
M  ZZI  49 1
M  ZZM  50 28
M  ZZI  50 11
M  ZZM  51 5
M  ZZI  51 1
M  ZZM  52 5
M  ZZI  52 1
M  ZZM  53 5
M  ZZI  53 1
M  ZZM  54 5
M  ZZI  54 1
M  ZZM  55 5
M  ZZI  55 1
M  ZZM  56 5
M  ZZI  56 1
M  ZZM  57 5
M  ZZI  57 1
M  ZZM  58 5
M  ZZI  58 1
M  ZZM  59 5
M  ZZI  59 1
M  ZZM  60 5
M  ZZI  60 1
M  ZZM  61 5
M  ZZI  61 1
M  ZZM  62 5
M  ZZI  62 1
M  ZZM  63 5
M  ZZI  63 1
M  ZZM  64 5
M  ZZI  64 1
M  ZZM  65 5
M  ZZI  65 1
M  ZZM  66 21
M  ZZI  66 20
M  ZZM  67 5
M  ZZI  67 1
M  ZZM  68 5
M  ZZI  68 1
M  END
> <IX>
1

> <NAME>
VHL_5EHR_14.pdb

> <Score>
-16.744274

> <Natom>
68

> <Nflex>
8

> <Hbond>
-4.021225

> <Hphob>
-6.408912

> <VwInt>
-30.596218

> <Dsolv>
15.616028

> <SolEl>
12.262009

> <Eintl>
6.191113

> <RecConf>
ND

> <projPath>
VHL_maps/

> <NAME_>
VHL_5EHR_14.pdb

$$$$
