VHL_4CI3_23.pdb
  MOLSOFT 04032206393D

 65 67  0  0  1  0  0  0  0  0999 V2000
   15.3557   -5.2891   -3.3348 O   0  0  0  0  0  0  0  0  0  0  0  0
   16.4643   -5.0965   -3.8100 C   0  0  0  0  0  0  0  0  0  0  0  0
   17.0607   -3.8564   -3.8970 N   0  0  0  0  0  0  0  0  0  0  0  0
   16.3345   -2.6211   -3.5893 C   0  0  1  0  0  0  0  0  0  0  0  0
   16.6103   -2.0477   -2.1661 C   0  0  0  0  0  0  0  0  0  0  0  0
   18.0508   -1.5412   -2.0008 C   0  0  0  0  0  0  0  0  0  0  0  0
   15.6535   -0.8785   -1.8854 C   0  0  0  0  0  0  0  0  0  0  0  0
   16.3524   -3.1230   -1.0968 C   0  0  0  0  0  0  0  0  0  0  0  0
   16.7034   -1.6614   -4.7394 C   0  0  0  0  0  0  0  0  0  0  0  0
   17.8754   -1.4339   -5.0160 O   0  0  0  0  0  0  0  0  0  0  0  0
   15.6516   -1.1174   -5.4748 N   0  0  0  0  0  0  0  0  0  0  0  0
   15.8970   -0.3522   -6.6894 C   0  0  2  0  0  0  0  0  0  0  0  0
   16.2441    1.1051   -6.3702 C   0  0  0  0  0  0  0  0  0  0  0  0
   15.5512    1.8077   -5.6464 O   0  0  0  0  0  0  0  0  0  0  0  0
   17.4014    1.5485   -6.9829 N   0  0  0  0  0  0  0  0  0  0  0  0
   17.8803    2.9089   -6.7941 C   0  0  0  0  0  0  0  0  0  0  0  0
   19.3416    3.1374   -7.1122 C   0  0  0  0  0  0  0  0  0  0  0  0
   20.2614    2.1009   -7.2334 C   0  0  0  0  0  0  0  0  0  0  0  0
   21.6019    2.3586   -7.4442 C   0  0  0  0  0  0  0  0  0  0  0  0
   22.0850    3.6562   -7.5063 C   0  0  0  0  0  0  0  0  0  0  0  0
   23.5157    3.8963   -7.6223 C   0  0  0  0  0  0  0  0  0  0  0  0
   24.3635    3.8851   -8.7221 C   0  0  0  0  0  0  0  0  0  0  0  0
   23.9908    3.6788  -10.1381 C   0  0  0  0  0  0  0  0  0  0  0  0
   25.6984    4.0856   -8.4325 N   0  0  0  0  0  0  0  0  0  0  0  0
   25.8500    4.2709   -7.1410 C   0  0  0  0  0  0  0  0  0  0  0  0
   24.4264    4.2217   -6.1995 S   0  0  0  0  0  0  0  0  0  0  0  0
   21.1732    4.6995   -7.4122 C   0  0  0  0  0  0  0  0  0  0  0  0
   19.8233    4.4400   -7.2212 C   0  0  0  0  0  0  0  0  0  0  0  0
   14.5861   -0.4486   -7.4516 C   0  0  0  0  0  0  0  0  0  0  0  0
   13.5253   -0.5671   -6.3665 C   0  0  1  0  0  0  0  0  0  0  0  0
   12.3893   -1.2967   -6.8301 O   0  0  0  0  0  0  0  0  0  0  0  0
   14.2321   -1.3428   -5.2675 C   0  0  0  0  0  0  0  0  0  0  0  0
   17.2928   -6.2142   -4.3885 C   0  0  0  0  0  0  0  0  0  0  0  0
   18.0084   -3.7856   -4.2566 H   0  0  0  0  0  0  0  0  0  0  0  0
   15.2729   -2.8723   -3.6458 H   0  0  0  0  0  0  0  0  0  0  0  0
   18.7763   -2.3051   -2.2831 H   0  0  0  0  0  0  0  0  0  0  0  0
   18.2608   -1.2648   -0.9627 H   0  0  0  0  0  0  0  0  0  0  0  0
   18.2478   -0.6523   -2.6071 H   0  0  0  0  0  0  0  0  0  0  0  0
   14.6067   -1.1957   -1.9410 H   0  0  0  0  0  0  0  0  0  0  0  0
   15.7911   -0.0587   -2.5973 H   0  0  0  0  0  0  0  0  0  0  0  0
   15.8110   -0.4641   -0.8843 H   0  0  0  0  0  0  0  0  0  0  0  0
   15.3397   -3.5321   -1.1755 H   0  0  0  0  0  0  0  0  0  0  0  0
   16.4560   -2.7157   -0.0858 H   0  0  0  0  0  0  0  0  0  0  0  0
   17.0570   -3.9560   -1.1761 H   0  0  0  0  0  0  0  0  0  0  0  0
   16.7144   -0.8115   -7.2574 H   0  0  0  0  0  0  0  0  0  0  0  0
   17.9120    0.9162   -7.5916 H   0  0  0  0  0  0  0  0  0  0  0  0
   17.2581    3.5469   -7.4314 H   0  0  0  0  0  0  0  0  0  0  0  0
   17.6944    3.1966   -5.7536 H   0  0  0  0  0  0  0  0  0  0  0  0
   19.9535    1.0657   -7.1484 H   0  0  0  0  0  0  0  0  0  0  0  0
   22.2777    1.5182   -7.5401 H   0  0  0  0  0  0  0  0  0  0  0  0
   23.7203    2.6362  -10.3165 H   0  0  0  0  0  0  0  0  0  0  0  0
   24.8234    3.9244  -10.8033 H   0  0  0  0  0  0  0  0  0  0  0  0
   23.1455    4.3144  -10.4156 H   0  0  0  0  0  0  0  0  0  0  0  0
   26.8182    4.4434   -6.6927 H   0  0  0  0  0  0  0  0  0  0  0  0
   21.5127    5.7296   -7.4677 H   0  0  0  0  0  0  0  0  0  0  0  0
   19.1402    5.2797   -7.1297 H   0  0  0  0  0  0  0  0  0  0  0  0
   14.4013    0.4014   -8.1170 H   0  0  0  0  0  0  0  0  0  0  0  0
   14.5910   -1.3538   -8.0676 H   0  0  0  0  0  0  0  0  0  0  0  0
   13.2000    0.4157   -6.0079 H   0  0  0  0  0  0  0  0  0  0  0  0
   11.9465   -0.7678   -7.5188 H   0  0  0  0  0  0  0  0  0  0  0  0
   14.0217   -2.4154   -5.3258 H   0  0  0  0  0  0  0  0  0  0  0  0
   13.9369   -0.9951   -4.2736 H   0  0  0  0  0  0  0  0  0  0  0  0
   16.7793   -6.6224   -5.2644 H   0  0  0  0  0  0  0  0  0  0  0  0
   17.4144   -7.0014   -3.6411 H   0  0  0  0  0  0  0  0  0  0  0  0
   18.2850   -5.8699   -4.6934 H   0  0  0  0  0  0  0  0  0  0  0  0
  1  2  2  0  0  0  0
  2  3  1  0  0  0  0
  2 33  1  0  0  0  0
  4  3  1  0  0  0  0
  3 34  1  0  0  0  0
  4  5  1  0  0  0  0
  4 35  1  0  0  0  0
  4  9  1  0  0  0  0
  5  6  1  0  0  0  0
  5  7  1  0  0  0  0
  5  8  1  0  0  0  0
  6 36  1  0  0  0  0
  6 37  1  0  0  0  0
  6 38  1  0  0  0  0
  7 39  1  0  0  0  0
  7 40  1  0  0  0  0
  7 41  1  0  0  0  0
  8 42  1  0  0  0  0
  8 43  1  0  0  0  0
  8 44  1  0  0  0  0
  9 10  2  0  0  0  0
  9 11  1  0  0  0  0
 11 32  1  0  0  0  0
 12 11  1  0  0  0  0
 12 29  1  0  0  0  0
 12 45  1  0  0  0  0
 12 13  1  0  0  0  0
 13 14  2  0  0  0  0
 13 15  1  0  0  0  0
 15 46  1  0  0  0  0
 15 16  1  0  0  0  0
 16 47  1  0  0  0  0
 16 48  1  0  0  0  0
 16 17  1  0  0  0  0
 17 18  1  0  0  0  0
 17 28  2  0  0  0  0
 18 49  1  0  0  0  0
 18 19  2  0  0  0  0
 19 50  1  0  0  0  0
 19 20  1  0  0  0  0
 20 27  2  0  0  0  0
 20 21  1  0  0  0  0
 21 22  2  0  0  0  0
 21 26  1  0  0  0  0
 22 23  1  0  0  0  0
 22 24  1  0  0  0  0
 23 51  1  0  0  0  0
 23 52  1  0  0  0  0
 23 53  1  0  0  0  0
 24 25  2  0  0  0  0
 25 54  1  0  0  0  0
 25 26  1  0  0  0  0
 27 55  1  0  0  0  0
 27 28  1  0  0  0  0
 28 56  1  0  0  0  0
 30 29  1  0  0  0  0
 29 57  1  0  0  0  0
 29 58  1  0  0  0  0
 30 32  1  0  0  0  0
 30 59  1  0  0  0  0
 30 31  1  0  0  0  0
 31 60  1  0  0  0  0
 32 61  1  0  0  0  0
 32 62  1  0  0  0  0
 33 63  1  0  0  0  0
 33 64  1  0  0  0  0
 33 65  1  0  0  0  0
M  ZZC   1 o1
M  ZZC   2 c1
M  ZZC   3 n1
M  ZZC   4 c2
M  ZZC   5 c3
M  ZZC   6 c4
M  ZZC   7 c5
M  ZZC   8 c6
M  ZZC   9 c7
M  ZZC  10 o2
M  ZZC  11 n2
M  ZZC  12 c8
M  ZZC  13 c9
M  ZZC  14 o3
M  ZZC  15 n3
M  ZZC  16 c10
M  ZZC  17 c11
M  ZZC  18 c12
M  ZZC  19 c13
M  ZZC  20 c14
M  ZZC  21 c15
M  ZZC  22 c16
M  ZZC  23 c17
M  ZZC  24 n4
M  ZZC  25 c18
M  ZZC  26 s1
M  ZZC  27 c19
M  ZZC  28 c20
M  ZZC  29 c21
M  ZZC  30 c22
M  ZZC  31 o4
M  ZZC  32 c23
M  ZZC  33 c24
M  ZZC  34 h11
M  ZZC  35 h21
M  ZZC  36 h41
M  ZZC  37 h42
M  ZZC  38 h43
M  ZZC  39 h51
M  ZZC  40 h52
M  ZZC  41 h53
M  ZZC  42 h61
M  ZZC  43 h62
M  ZZC  44 h63
M  ZZC  45 h81
M  ZZC  46 h31
M  ZZC  47 h101
M  ZZC  48 h102
M  ZZC  49 h121
M  ZZC  50 h131
M  ZZC  51 h171
M  ZZC  52 h172
M  ZZC  53 h173
M  ZZC  54 h181
M  ZZC  55 h191
M  ZZC  56 h201
M  ZZC  57 h211
M  ZZC  58 h212
M  ZZC  59 h221
M  ZZC  60 h01
M  ZZC  61 h231
M  ZZC  62 h232
M  ZZC  63 h241
M  ZZC  64 h242
M  ZZC  65 h243
M  ZZM   1 7
M  ZZI   1 81
M  ZZM   2 3
M  ZZI   2 121
M  ZZM   3 10
M  ZZI   3 211
M  ZZM   4 1
M  ZZI   4 113
M  ZZM   5 1
M  ZZI   5 110
M  ZZM   6 1
M  ZZI   6 111
M  ZZM   7 1
M  ZZI   7 111
M  ZZM   8 1
M  ZZI   8 111
M  ZZM   9 3
M  ZZI   9 121
M  ZZM  10 7
M  ZZI  10 81
M  ZZM  11 10
M  ZZI  11 192
M  ZZM  12 1
M  ZZI  12 113
M  ZZM  13 3
M  ZZI  13 121
M  ZZM  14 7
M  ZZI  14 81
M  ZZM  15 10
M  ZZI  15 211
M  ZZM  16 1
M  ZZI  16 112
M  ZZM  17 37
M  ZZI  17 124
M  ZZM  18 37
M  ZZI  18 125
M  ZZM  19 37
M  ZZI  19 125
M  ZZM  20 37
M  ZZI  20 124
M  ZZM  21 63
M  ZZI  21 104
M  ZZM  22 64
M  ZZI  22 105
M  ZZM  23 1
M  ZZI  23 111
M  ZZM  24 66
M  ZZI  24 222
M  ZZM  25 63
M  ZZI  25 104
M  ZZM  26 44
M  ZZI  26 248
M  ZZM  27 37
M  ZZI  27 125
M  ZZM  28 37
M  ZZI  28 125
M  ZZM  29 1
M  ZZI  29 112
M  ZZM  30 1
M  ZZI  30 113
M  ZZM  31 6
M  ZZI  31 60
M  ZZM  32 1
M  ZZI  32 112
M  ZZM  33 1
M  ZZI  33 111
M  ZZM  34 28
M  ZZI  34 11
M  ZZM  35 5
M  ZZI  35 1
M  ZZM  36 5
M  ZZI  36 1
M  ZZM  37 5
M  ZZI  37 1
M  ZZM  38 5
M  ZZI  38 1
M  ZZM  39 5
M  ZZI  39 1
M  ZZM  40 5
M  ZZI  40 1
M  ZZM  41 5
M  ZZI  41 1
M  ZZM  42 5
M  ZZI  42 1
M  ZZM  43 5
M  ZZI  43 1
M  ZZM  44 5
M  ZZI  44 1
M  ZZM  45 5
M  ZZI  45 1
M  ZZM  46 28
M  ZZI  46 11
M  ZZM  47 5
M  ZZI  47 1
M  ZZM  48 5
M  ZZI  48 1
M  ZZM  49 5
M  ZZI  49 1
M  ZZM  50 5
M  ZZI  50 1
M  ZZM  51 5
M  ZZI  51 1
M  ZZM  52 5
M  ZZI  52 1
M  ZZM  53 5
M  ZZI  53 1
M  ZZM  54 5
M  ZZI  54 1
M  ZZM  55 5
M  ZZI  55 1
M  ZZM  56 5
M  ZZI  56 1
M  ZZM  57 5
M  ZZI  57 1
M  ZZM  58 5
M  ZZI  58 1
M  ZZM  59 5
M  ZZI  59 1
M  ZZM  60 21
M  ZZI  60 20
M  ZZM  61 5
M  ZZI  61 1
M  ZZM  62 5
M  ZZI  62 1
M  ZZM  63 5
M  ZZI  63 1
M  ZZM  64 5
M  ZZI  64 1
M  ZZM  65 5
M  ZZI  65 1
M  END
> <IX>
1

> <NAME>
VHL_4CI3_23.pdb

> <Score>
-14.884727

> <Natom>
65

> <Nflex>
8

> <Hbond>
-4.967643

> <Hphob>
-6.261767

> <VwInt>
-31.505374

> <Dsolv>
17.542637

> <SolEl>
18.25833

> <Eintl>
5.627822

> <RecConf>
ND

> <projPath>
VHL_maps/

> <NAME_>
VHL_4CI3_23.pdb

$$$$
