VHL_4CI3_5.pdb
  MOLSOFT 04032206383D

 65 67  0  0  1  0  0  0  0  0999 V2000
   16.0605   -6.3042   -5.6331 O   0  0  0  0  0  0  0  0  0  0  0  0
   17.1634   -5.9190   -5.2802 C   0  0  0  0  0  0  0  0  0  0  0  0
   17.4424   -4.6568   -4.7886 N   0  0  0  0  0  0  0  0  0  0  0  0
   16.4566   -3.5761   -4.6624 C   0  0  1  0  0  0  0  0  0  0  0  0
   15.8393   -3.4726   -3.2298 C   0  0  0  0  0  0  0  0  0  0  0  0
   16.8441   -2.9274   -2.2014 C   0  0  0  0  0  0  0  0  0  0  0  0
   14.6130   -2.5468   -3.2494 C   0  0  0  0  0  0  0  0  0  0  0  0
   15.3647   -4.8474   -2.7319 C   0  0  0  0  0  0  0  0  0  0  0  0
   17.1569   -2.2780   -5.1100 C   0  0  0  0  0  0  0  0  0  0  0  0
   18.3057   -2.0413   -4.7676 O   0  0  0  0  0  0  0  0  0  0  0  0
   16.4408   -1.3400   -5.8596 N   0  0  0  0  0  0  0  0  0  0  0  0
   17.0572   -0.0588   -6.1985 C   0  0  2  0  0  0  0  0  0  0  0  0
   17.1923    0.8927   -5.0117 C   0  0  0  0  0  0  0  0  0  0  0  0
   18.2468    1.4667   -4.7771 O   0  0  0  0  0  0  0  0  0  0  0  0
   16.0076    1.1615   -4.3472 N   0  0  0  0  0  0  0  0  0  0  0  0
   15.8725    2.2719   -3.4242 C   0  0  0  0  0  0  0  0  0  0  0  0
   15.3550    3.5114   -4.1175 C   0  0  0  0  0  0  0  0  0  0  0  0
   14.2091    4.1614   -3.6677 C   0  0  0  0  0  0  0  0  0  0  0  0
   13.7455    5.3046   -4.3018 C   0  0  0  0  0  0  0  0  0  0  0  0
   14.4072    5.8257   -5.4107 C   0  0  0  0  0  0  0  0  0  0  0  0
   13.9422    7.0276   -6.0901 C   0  0  0  0  0  0  0  0  0  0  0  0
   13.6196    7.2524   -7.4241 C   0  0  0  0  0  0  0  0  0  0  0  0
   13.6062    6.2597   -8.5242 C   0  0  0  0  0  0  0  0  0  0  0  0
   13.2951    8.5578   -7.7332 N   0  0  0  0  0  0  0  0  0  0  0  0
   13.3702    9.2970   -6.6498 C   0  0  0  0  0  0  0  0  0  0  0  0
   13.7794    8.4910   -5.2044 S   0  0  0  0  0  0  0  0  0  0  0  0
   15.5536    5.1821   -5.8554 C   0  0  0  0  0  0  0  0  0  0  0  0
   16.0256    4.0546   -5.2114 C   0  0  0  0  0  0  0  0  0  0  0  0
   16.1552    0.5561   -7.2693 C   0  0  0  0  0  0  0  0  0  0  0  0
   15.4397   -0.6331   -7.8732 C   0  0  1  0  0  0  0  0  0  0  0  0
   16.2261   -1.1902   -8.9343 O   0  0  0  0  0  0  0  0  0  0  0  0
   15.3036   -1.6148   -6.7159 C   0  0  0  0  0  0  0  0  0  0  0  0
   18.3598   -6.8289   -5.3324 C   0  0  0  0  0  0  0  0  0  0  0  0
   18.3942   -4.4554   -4.5068 H   0  0  0  0  0  0  0  0  0  0  0  0
   15.6664   -3.8025   -5.3659 H   0  0  0  0  0  0  0  0  0  0  0  0
   17.7654   -3.5147   -2.1878 H   0  0  0  0  0  0  0  0  0  0  0  0
   16.4295   -2.9517   -1.1883 H   0  0  0  0  0  0  0  0  0  0  0  0
   17.1178   -1.8878   -2.4049 H   0  0  0  0  0  0  0  0  0  0  0  0
   14.1243   -2.5080   -2.2704 H   0  0  0  0  0  0  0  0  0  0  0  0
   13.8651   -2.8896   -3.9715 H   0  0  0  0  0  0  0  0  0  0  0  0
   14.8793   -1.5194   -3.5091 H   0  0  0  0  0  0  0  0  0  0  0  0
   14.6444   -5.2935   -3.4202 H   0  0  0  0  0  0  0  0  0  0  0  0
   14.8722   -4.7736   -1.7574 H   0  0  0  0  0  0  0  0  0  0  0  0
   16.1931   -5.5510   -2.6115 H   0  0  0  0  0  0  0  0  0  0  0  0
   18.0580   -0.2521   -6.5883 H   0  0  0  0  0  0  0  0  0  0  0  0
   15.1783    0.6252   -4.5749 H   0  0  0  0  0  0  0  0  0  0  0  0
   15.1803    1.9473   -2.6405 H   0  0  0  0  0  0  0  0  0  0  0  0
   16.8370    2.4876   -2.9520 H   0  0  0  0  0  0  0  0  0  0  0  0
   13.6625    3.7803   -2.8098 H   0  0  0  0  0  0  0  0  0  0  0  0
   12.8453    5.7834   -3.9281 H   0  0  0  0  0  0  0  0  0  0  0  0
   14.6221    6.0602   -8.8769 H   0  0  0  0  0  0  0  0  0  0  0  0
   13.0227    6.6257   -9.3738 H   0  0  0  0  0  0  0  0  0  0  0  0
   13.1601    5.3146   -8.2017 H   0  0  0  0  0  0  0  0  0  0  0  0
   13.1851   10.3601   -6.6579 H   0  0  0  0  0  0  0  0  0  0  0  0
   16.1081    5.5704   -6.7049 H   0  0  0  0  0  0  0  0  0  0  0  0
   16.9398    3.6010   -5.5797 H   0  0  0  0  0  0  0  0  0  0  0  0
   15.4194    1.2458   -6.8434 H   0  0  0  0  0  0  0  0  0  0  0  0
   16.7398    1.1164   -8.0054 H   0  0  0  0  0  0  0  0  0  0  0  0
   14.4695   -0.3535   -8.2854 H   0  0  0  0  0  0  0  0  0  0  0  0
   17.1600   -1.1475   -8.6568 H   0  0  0  0  0  0  0  0  0  0  0  0
   15.3153   -2.6515   -7.0606 H   0  0  0  0  0  0  0  0  0  0  0  0
   14.3984   -1.4196   -6.1317 H   0  0  0  0  0  0  0  0  0  0  0  0
   18.3377   -7.3977   -6.2661 H   0  0  0  0  0  0  0  0  0  0  0  0
   18.3168   -7.5202   -4.4875 H   0  0  0  0  0  0  0  0  0  0  0  0
   19.2967   -6.2651   -5.2964 H   0  0  0  0  0  0  0  0  0  0  0  0
  1  2  2  0  0  0  0
  2  3  1  0  0  0  0
  2 33  1  0  0  0  0
  4  3  1  0  0  0  0
  3 34  1  0  0  0  0
  4  5  1  0  0  0  0
  4 35  1  0  0  0  0
  4  9  1  0  0  0  0
  5  6  1  0  0  0  0
  5  7  1  0  0  0  0
  5  8  1  0  0  0  0
  6 36  1  0  0  0  0
  6 37  1  0  0  0  0
  6 38  1  0  0  0  0
  7 39  1  0  0  0  0
  7 40  1  0  0  0  0
  7 41  1  0  0  0  0
  8 42  1  0  0  0  0
  8 43  1  0  0  0  0
  8 44  1  0  0  0  0
  9 10  2  0  0  0  0
  9 11  1  0  0  0  0
 11 32  1  0  0  0  0
 12 11  1  0  0  0  0
 12 29  1  0  0  0  0
 12 45  1  0  0  0  0
 12 13  1  0  0  0  0
 13 14  2  0  0  0  0
 13 15  1  0  0  0  0
 15 46  1  0  0  0  0
 15 16  1  0  0  0  0
 16 47  1  0  0  0  0
 16 48  1  0  0  0  0
 16 17  1  0  0  0  0
 17 18  1  0  0  0  0
 17 28  2  0  0  0  0
 18 49  1  0  0  0  0
 18 19  2  0  0  0  0
 19 50  1  0  0  0  0
 19 20  1  0  0  0  0
 20 27  2  0  0  0  0
 20 21  1  0  0  0  0
 21 22  2  0  0  0  0
 21 26  1  0  0  0  0
 22 23  1  0  0  0  0
 22 24  1  0  0  0  0
 23 51  1  0  0  0  0
 23 52  1  0  0  0  0
 23 53  1  0  0  0  0
 24 25  2  0  0  0  0
 25 54  1  0  0  0  0
 25 26  1  0  0  0  0
 27 55  1  0  0  0  0
 27 28  1  0  0  0  0
 28 56  1  0  0  0  0
 30 29  1  0  0  0  0
 29 57  1  0  0  0  0
 29 58  1  0  0  0  0
 30 32  1  0  0  0  0
 30 59  1  0  0  0  0
 30 31  1  0  0  0  0
 31 60  1  0  0  0  0
 32 61  1  0  0  0  0
 32 62  1  0  0  0  0
 33 63  1  0  0  0  0
 33 64  1  0  0  0  0
 33 65  1  0  0  0  0
M  ZZC   1 o1
M  ZZC   2 c1
M  ZZC   3 n1
M  ZZC   4 c2
M  ZZC   5 c3
M  ZZC   6 c4
M  ZZC   7 c5
M  ZZC   8 c6
M  ZZC   9 c7
M  ZZC  10 o2
M  ZZC  11 n2
M  ZZC  12 c8
M  ZZC  13 c9
M  ZZC  14 o3
M  ZZC  15 n3
M  ZZC  16 c10
M  ZZC  17 c11
M  ZZC  18 c12
M  ZZC  19 c13
M  ZZC  20 c14
M  ZZC  21 c15
M  ZZC  22 c16
M  ZZC  23 c17
M  ZZC  24 n4
M  ZZC  25 c18
M  ZZC  26 s1
M  ZZC  27 c19
M  ZZC  28 c20
M  ZZC  29 c21
M  ZZC  30 c22
M  ZZC  31 o4
M  ZZC  32 c23
M  ZZC  33 c24
M  ZZC  34 h11
M  ZZC  35 h21
M  ZZC  36 h41
M  ZZC  37 h42
M  ZZC  38 h43
M  ZZC  39 h51
M  ZZC  40 h52
M  ZZC  41 h53
M  ZZC  42 h61
M  ZZC  43 h62
M  ZZC  44 h63
M  ZZC  45 h81
M  ZZC  46 h31
M  ZZC  47 h101
M  ZZC  48 h102
M  ZZC  49 h121
M  ZZC  50 h131
M  ZZC  51 h171
M  ZZC  52 h172
M  ZZC  53 h173
M  ZZC  54 h181
M  ZZC  55 h191
M  ZZC  56 h201
M  ZZC  57 h211
M  ZZC  58 h212
M  ZZC  59 h221
M  ZZC  60 h01
M  ZZC  61 h231
M  ZZC  62 h232
M  ZZC  63 h241
M  ZZC  64 h242
M  ZZC  65 h243
M  ZZM   1 7
M  ZZI   1 81
M  ZZM   2 3
M  ZZI   2 121
M  ZZM   3 10
M  ZZI   3 211
M  ZZM   4 1
M  ZZI   4 113
M  ZZM   5 1
M  ZZI   5 110
M  ZZM   6 1
M  ZZI   6 111
M  ZZM   7 1
M  ZZI   7 111
M  ZZM   8 1
M  ZZI   8 111
M  ZZM   9 3
M  ZZI   9 121
M  ZZM  10 7
M  ZZI  10 81
M  ZZM  11 10
M  ZZI  11 192
M  ZZM  12 1
M  ZZI  12 113
M  ZZM  13 3
M  ZZI  13 121
M  ZZM  14 7
M  ZZI  14 81
M  ZZM  15 10
M  ZZI  15 211
M  ZZM  16 1
M  ZZI  16 112
M  ZZM  17 37
M  ZZI  17 124
M  ZZM  18 37
M  ZZI  18 125
M  ZZM  19 37
M  ZZI  19 125
M  ZZM  20 37
M  ZZI  20 124
M  ZZM  21 63
M  ZZI  21 104
M  ZZM  22 64
M  ZZI  22 105
M  ZZM  23 1
M  ZZI  23 111
M  ZZM  24 66
M  ZZI  24 222
M  ZZM  25 63
M  ZZI  25 104
M  ZZM  26 44
M  ZZI  26 248
M  ZZM  27 37
M  ZZI  27 125
M  ZZM  28 37
M  ZZI  28 125
M  ZZM  29 1
M  ZZI  29 112
M  ZZM  30 1
M  ZZI  30 113
M  ZZM  31 6
M  ZZI  31 60
M  ZZM  32 1
M  ZZI  32 112
M  ZZM  33 1
M  ZZI  33 111
M  ZZM  34 28
M  ZZI  34 11
M  ZZM  35 5
M  ZZI  35 1
M  ZZM  36 5
M  ZZI  36 1
M  ZZM  37 5
M  ZZI  37 1
M  ZZM  38 5
M  ZZI  38 1
M  ZZM  39 5
M  ZZI  39 1
M  ZZM  40 5
M  ZZI  40 1
M  ZZM  41 5
M  ZZI  41 1
M  ZZM  42 5
M  ZZI  42 1
M  ZZM  43 5
M  ZZI  43 1
M  ZZM  44 5
M  ZZI  44 1
M  ZZM  45 5
M  ZZI  45 1
M  ZZM  46 28
M  ZZI  46 11
M  ZZM  47 5
M  ZZI  47 1
M  ZZM  48 5
M  ZZI  48 1
M  ZZM  49 5
M  ZZI  49 1
M  ZZM  50 5
M  ZZI  50 1
M  ZZM  51 5
M  ZZI  51 1
M  ZZM  52 5
M  ZZI  52 1
M  ZZM  53 5
M  ZZI  53 1
M  ZZM  54 5
M  ZZI  54 1
M  ZZM  55 5
M  ZZI  55 1
M  ZZM  56 5
M  ZZI  56 1
M  ZZM  57 5
M  ZZI  57 1
M  ZZM  58 5
M  ZZI  58 1
M  ZZM  59 5
M  ZZI  59 1
M  ZZM  60 21
M  ZZI  60 20
M  ZZM  61 5
M  ZZI  61 1
M  ZZM  62 5
M  ZZI  62 1
M  ZZM  63 5
M  ZZI  63 1
M  ZZM  64 5
M  ZZI  64 1
M  ZZM  65 5
M  ZZI  65 1
M  END
> <IX>
1

> <NAME>
VHL_4CI3_5.pdb

> <Score>
-24.149486

> <Natom>
65

> <Nflex>
8

> <Hbond>
-7.905105

> <Hphob>
-6.580053

> <VwInt>
-31.183925

> <Dsolv>
21.013066

> <SolEl>
9.820936

> <Eintl>
7.335624

> <RecConf>
ND

> <projPath>
VHL_maps/

> <NAME_>
VHL_4CI3_5.pdb

$$$$
