VHL_5T8E_51.pdb
  MOLSOFT 04032206463D

 84 88  0  0  1  0  0  0  0  0999 V2000
   18.4613   -7.1576   -5.8342 N   0  3  0  0  0  0  0  0  0  0  0  0
   17.4666   -7.3637   -4.7345 C   0  0  0  0  0  0  0  0  0  0  0  0
   16.4710   -6.2075   -4.6994 C   0  0  0  0  0  0  0  0  0  0  0  0
   17.1132   -4.8978   -4.6163 N   0  0  0  0  0  0  0  0  0  0  0  0
   16.5977   -3.8067   -3.9037 C   0  0  0  0  0  0  0  0  0  0  0  0
   17.2186   -2.7649   -3.7461 O   0  0  0  0  0  0  0  0  0  0  0  0
   15.1900   -3.9877   -3.3537 C   0  0  0  0  0  0  0  0  0  0  0  0
   14.4224   -2.6937   -3.0271 C   0  0  2  0  0  0  0  0  0  0  0  0
   14.7382   -1.5929   -3.9236 N   0  0  0  0  0  0  0  0  0  0  0  0
   14.2306   -1.4561   -5.2028 C   0  0  0  0  0  0  0  0  0  0  0  0
   13.4228   -2.2365   -5.6839 O   0  0  0  0  0  0  0  0  0  0  0  0
   14.6581   -0.1776   -5.9412 C   0  0  1  0  0  0  0  0  0  0  0  0
   16.0378    0.1891   -5.6427 N   0  0  0  0  0  0  0  0  0  0  0  0
   16.3675    1.0581   -4.6020 C   0  0  0  0  0  0  0  0  0  0  0  0
   15.4987    1.5956   -3.9287 O   0  0  0  0  0  0  0  0  0  0  0  0
   17.8562    1.2798   -4.3125 C   0  0  2  0  0  0  0  0  0  0  0  0
   18.0704    1.7310   -2.8424 C   0  0  0  0  0  0  0  0  0  0  0  0
   19.5107    2.1517   -2.5461 C   0  0  0  0  0  0  0  0  0  0  0  0
   17.6925    0.6107   -1.8669 C   0  0  0  0  0  0  0  0  0  0  0  0
   18.3784    2.2746   -5.3005 C   0  0  0  0  0  0  0  0  0  0  0  0
   19.5585    1.9551   -5.9065 O   0  0  0  0  0  0  0  0  0  0  0  0
   19.9040    2.9594   -6.8145 N   0  0  0  0  0  0  0  0  0  0  0  0
   18.9263    3.8695   -6.7255 C   0  0  0  0  0  0  0  0  0  0  0  0
   18.9618    5.0931   -7.5551 C   0  0  0  0  0  0  0  0  0  0  0  0
   17.9415    3.4846   -5.7861 C   0  0  0  0  0  0  0  0  0  0  0  0
   16.9312   -0.3438   -6.6572 C   0  0  0  0  0  0  0  0  0  0  0  0
   16.0272   -1.0691   -7.6550 C   0  0  2  0  0  0  0  0  0  0  0  0
   16.4424   -0.9299   -9.0175 O   0  0  0  0  0  0  0  0  0  0  0  0
   14.6819   -0.4031   -7.4418 C   0  0  0  0  0  0  0  0  0  0  0  0
   14.4693   -2.2315   -1.5830 C   0  0  0  0  0  0  0  0  0  0  0  0
   15.4251   -2.6431   -0.6541 C   0  0  0  0  0  0  0  0  0  0  0  0
   15.3501   -2.2364    0.6698 C   0  0  0  0  0  0  0  0  0  0  0  0
   14.3358   -1.3883    1.1048 C   0  0  0  0  0  0  0  0  0  0  0  0
   14.2167   -1.0029    2.5050 C   0  0  0  0  0  0  0  0  0  0  0  0
   14.1293   -1.7794    3.6540 C   0  0  0  0  0  0  0  0  0  0  0  0
   14.1409   -3.2576    3.7388 C   0  0  0  0  0  0  0  0  0  0  0  0
   13.9995   -1.0708    4.8315 N   0  0  0  0  0  0  0  0  0  0  0  0
   13.9894    0.2172    4.5738 C   0  0  0  0  0  0  0  0  0  0  0  0
   14.1488    0.6629    2.9338 S   0  0  0  0  0  0  0  0  0  0  0  0
   13.4122   -0.9383    0.1714 C   0  0  0  0  0  0  0  0  0  0  0  0
   13.4819   -1.3551   -1.1429 C   0  0  0  0  0  0  0  0  0  0  0  0
   18.1895   -4.6685   -5.5763 C   0  0  0  0  0  0  0  0  0  0  0  0
   19.1722   -5.8370   -5.7419 C   0  0  0  0  0  0  0  0  0  0  0  0
   19.1600   -7.9133   -5.7875 H   0  0  0  0  0  0  0  0  0  0  0  0
   18.0043   -7.2661   -6.7458 H   0  0  0  0  0  0  0  0  0  0  0  0
   16.9762   -8.3223   -4.9259 H   0  0  0  0  0  0  0  0  0  0  0  0
   18.0282   -7.4263   -3.8022 H   0  0  0  0  0  0  0  0  0  0  0  0
   15.8683   -6.2213   -5.6104 H   0  0  0  0  0  0  0  0  0  0  0  0
   15.8044   -6.3374   -3.8485 H   0  0  0  0  0  0  0  0  0  0  0  0
   14.6196   -4.4881   -4.1342 H   0  0  0  0  0  0  0  0  0  0  0  0
   15.2118   -4.6748   -2.5013 H   0  0  0  0  0  0  0  0  0  0  0  0
   13.3712   -2.9408   -3.2139 H   0  0  0  0  0  0  0  0  0  0  0  0
   15.4303   -0.9259   -3.6041 H   0  0  0  0  0  0  0  0  0  0  0  0
   13.9670    0.6237   -5.6562 H   0  0  0  0  0  0  0  0  0  0  0  0
   18.3742    0.3260   -4.4564 H   0  0  0  0  0  0  0  0  0  0  0  0
   17.4331    2.5965   -2.6270 H   0  0  0  0  0  0  0  0  0  0  0  0
   20.1997    1.3172   -2.6883 H   0  0  0  0  0  0  0  0  0  0  0  0
   19.6132    2.4826   -1.5083 H   0  0  0  0  0  0  0  0  0  0  0  0
   19.8380    2.9817   -3.1780 H   0  0  0  0  0  0  0  0  0  0  0  0
   16.6390    0.3336   -1.9501 H   0  0  0  0  0  0  0  0  0  0  0  0
   17.8596    0.9199   -0.8306 H   0  0  0  0  0  0  0  0  0  0  0  0
   18.2884   -0.2908   -2.0440 H   0  0  0  0  0  0  0  0  0  0  0  0
   18.1060    5.1194   -8.2359 H   0  0  0  0  0  0  0  0  0  0  0  0
   19.8735    5.1438   -8.1582 H   0  0  0  0  0  0  0  0  0  0  0  0
   18.9255    5.9863   -6.9249 H   0  0  0  0  0  0  0  0  0  0  0  0
   17.0402    4.0122   -5.5079 H   0  0  0  0  0  0  0  0  0  0  0  0
   17.4822    0.4760   -7.1267 H   0  0  0  0  0  0  0  0  0  0  0  0
   17.6501   -1.0229   -6.1894 H   0  0  0  0  0  0  0  0  0  0  0  0
   15.9697   -2.1364   -7.4140 H   0  0  0  0  0  0  0  0  0  0  0  0
   17.3942   -0.7183   -9.0020 H   0  0  0  0  0  0  0  0  0  0  0  0
   13.8532   -1.0102   -7.8099 H   0  0  0  0  0  0  0  0  0  0  0  0
   14.6438    0.5517   -7.9802 H   0  0  0  0  0  0  0  0  0  0  0  0
   16.2389   -3.3004   -0.9422 H   0  0  0  0  0  0  0  0  0  0  0  0
   16.1008   -2.5941    1.3680 H   0  0  0  0  0  0  0  0  0  0  0  0
   13.7470   -3.5991    4.7006 H   0  0  0  0  0  0  0  0  0  0  0  0
   15.1597   -3.6414    3.6349 H   0  0  0  0  0  0  0  0  0  0  0  0
   13.5212   -3.7014    2.9558 H   0  0  0  0  0  0  0  0  0  0  0  0
   13.8888    0.9606    5.3514 H   0  0  0  0  0  0  0  0  0  0  0  0
   12.6022   -0.2789    0.4678 H   0  0  0  0  0  0  0  0  0  0  0  0
   12.7273   -1.0019   -1.8366 H   0  0  0  0  0  0  0  0  0  0  0  0
   17.6829   -4.4881   -6.5216 H   0  0  0  0  0  0  0  0  0  0  0  0
   18.7251   -3.7450   -5.3440 H   0  0  0  0  0  0  0  0  0  0  0  0
   19.8449   -5.9236   -4.8930 H   0  0  0  0  0  0  0  0  0  0  0  0
   19.7755   -5.7299   -6.6484 H   0  0  0  0  0  0  0  0  0  0  0  0
  1 44  1  0  0  0  0
  1 45  1  0  0  0  0
  1  2  1  0  0  0  0
  1 43  1  0  0  0  0
  2 46  1  0  0  0  0
  2 47  1  0  0  0  0
  2  3  1  0  0  0  0
  3 48  1  0  0  0  0
  3 49  1  0  0  0  0
  3  4  1  0  0  0  0
  4 42  1  0  0  0  0
  4  5  1  0  0  0  0
  5  6  2  0  0  0  0
  5  7  1  0  0  0  0
  7 50  1  0  0  0  0
  7 51  1  0  0  0  0
  8  7  1  0  0  0  0
  8 52  1  0  0  0  0
  8 30  1  0  0  0  0
  8  9  1  0  0  0  0
  9 53  1  0  0  0  0
  9 10  1  0  0  0  0
 10 11  2  0  0  0  0
 12 10  1  0  0  0  0
 12 54  1  0  0  0  0
 12 29  1  0  0  0  0
 12 13  1  0  0  0  0
 13 26  1  0  0  0  0
 13 14  1  0  0  0  0
 14 15  2  0  0  0  0
 16 14  1  0  0  0  0
 16 55  1  0  0  0  0
 16 17  1  0  0  0  0
 16 20  1  0  0  0  0
 17 56  1  0  0  0  0
 17 19  1  0  0  0  0
 17 18  1  0  0  0  0
 18 57  1  0  0  0  0
 18 58  1  0  0  0  0
 18 59  1  0  0  0  0
 19 60  1  0  0  0  0
 19 61  1  0  0  0  0
 19 62  1  0  0  0  0
 20 25  2  0  0  0  0
 20 21  1  0  0  0  0
 21 22  1  0  0  0  0
 22 23  2  0  0  0  0
 23 25  1  0  0  0  0
 23 24  1  0  0  0  0
 24 63  1  0  0  0  0
 24 64  1  0  0  0  0
 24 65  1  0  0  0  0
 25 66  1  0  0  0  0
 27 26  1  0  0  0  0
 26 67  1  0  0  0  0
 26 68  1  0  0  0  0
 27 29  1  0  0  0  0
 27 69  1  0  0  0  0
 27 28  1  0  0  0  0
 28 70  1  0  0  0  0
 29 71  1  0  0  0  0
 29 72  1  0  0  0  0
 30 31  1  0  0  0  0
 30 41  2  0  0  0  0
 31 73  1  0  0  0  0
 31 32  2  0  0  0  0
 32 74  1  0  0  0  0
 32 33  1  0  0  0  0
 33 40  2  0  0  0  0
 33 34  1  0  0  0  0
 34 35  2  0  0  0  0
 34 39  1  0  0  0  0
 35 36  1  0  0  0  0
 35 37  1  0  0  0  0
 36 75  1  0  0  0  0
 36 76  1  0  0  0  0
 36 77  1  0  0  0  0
 37 38  2  0  0  0  0
 38 78  1  0  0  0  0
 38 39  1  0  0  0  0
 40 79  1  0  0  0  0
 40 41  1  0  0  0  0
 41 80  1  0  0  0  0
 42 81  1  0  0  0  0
 42 82  1  0  0  0  0
 42 43  1  0  0  0  0
 43 83  1  0  0  0  0
 43 84  1  0  0  0  0
M  ZZC   1 n1
M  ZZC   2 c1
M  ZZC   3 c2
M  ZZC   4 n2
M  ZZC   5 c3
M  ZZC   6 o1
M  ZZC   7 c4
M  ZZC   8 c5
M  ZZC   9 n3
M  ZZC  10 c6
M  ZZC  11 o2
M  ZZC  12 c7
M  ZZC  13 n4
M  ZZC  14 c8
M  ZZC  15 o3
M  ZZC  16 c9
M  ZZC  17 c10
M  ZZC  18 c11
M  ZZC  19 c12
M  ZZC  20 c13
M  ZZC  21 o4
M  ZZC  22 n5
M  ZZC  23 c14
M  ZZC  24 c15
M  ZZC  25 c16
M  ZZC  26 c17
M  ZZC  27 c18
M  ZZC  28 o5
M  ZZC  29 c19
M  ZZC  30 c20
M  ZZC  31 c21
M  ZZC  32 c22
M  ZZC  33 c23
M  ZZC  34 c24
M  ZZC  35 c25
M  ZZC  36 c26
M  ZZC  37 n6
M  ZZC  38 c27
M  ZZC  39 s1
M  ZZC  40 c28
M  ZZC  41 c29
M  ZZC  42 c30
M  ZZC  43 c31
M  ZZC  44 h11
M  ZZC  45 h12
M  ZZC  46 h01
M  ZZC  47 h02
M  ZZC  48 h21
M  ZZC  49 h22
M  ZZC  50 h41
M  ZZC  51 h42
M  ZZC  52 h51
M  ZZC  53 h31
M  ZZC  54 h71
M  ZZC  55 h91
M  ZZC  56 h101
M  ZZC  57 h111
M  ZZC  58 h112
M  ZZC  59 h113
M  ZZC  60 h121
M  ZZC  61 h122
M  ZZC  62 h123
M  ZZC  63 h151
M  ZZC  64 h152
M  ZZC  65 h153
M  ZZC  66 h161
M  ZZC  67 h171
M  ZZC  68 h172
M  ZZC  69 h181
M  ZZC  70 h03
M  ZZC  71 h191
M  ZZC  72 h192
M  ZZC  73 h211
M  ZZC  74 h221
M  ZZC  75 h261
M  ZZC  76 h262
M  ZZC  77 h263
M  ZZC  78 h271
M  ZZC  79 h281
M  ZZC  80 h291
M  ZZC  81 h301
M  ZZC  82 h302
M  ZZC  83 h311
M  ZZC  84 h312
M  ZZM   1 34
M  ZZI   1 231
M  ZZM   2 1
M  ZZI   2 112
M  ZZM   3 1
M  ZZI   3 112
M  ZZM   4 10
M  ZZI   4 192
M  ZZM   5 3
M  ZZI   5 121
M  ZZM   6 7
M  ZZI   6 81
M  ZZM   7 1
M  ZZI   7 112
M  ZZM   8 1
M  ZZI   8 113
M  ZZM   9 10
M  ZZI   9 211
M  ZZM  10 3
M  ZZI  10 121
M  ZZM  11 7
M  ZZI  11 81
M  ZZM  12 1
M  ZZI  12 113
M  ZZM  13 10
M  ZZI  13 192
M  ZZM  14 3
M  ZZI  14 121
M  ZZM  15 7
M  ZZI  15 81
M  ZZM  16 1
M  ZZI  16 113
M  ZZM  17 1
M  ZZI  17 113
M  ZZM  18 1
M  ZZI  18 111
M  ZZM  19 1
M  ZZI  19 111
M  ZZM  20 63
M  ZZI  20 104
M  ZZM  21 59
M  ZZI  21 56
M  ZZM  22 65
M  ZZI  22 207
M  ZZM  23 64
M  ZZI  23 105
M  ZZM  24 1
M  ZZI  24 111
M  ZZM  25 64
M  ZZI  25 105
M  ZZM  26 1
M  ZZI  26 112
M  ZZM  27 1
M  ZZI  27 113
M  ZZM  28 6
M  ZZI  28 60
M  ZZM  29 1
M  ZZI  29 112
M  ZZM  30 37
M  ZZI  30 124
M  ZZM  31 37
M  ZZI  31 125
M  ZZM  32 37
M  ZZI  32 125
M  ZZM  33 37
M  ZZI  33 124
M  ZZM  34 63
M  ZZI  34 104
M  ZZM  35 64
M  ZZI  35 105
M  ZZM  36 1
M  ZZI  36 111
M  ZZM  37 66
M  ZZI  37 222
M  ZZM  38 63
M  ZZI  38 104
M  ZZM  39 44
M  ZZI  39 248
M  ZZM  40 37
M  ZZI  40 125
M  ZZM  41 37
M  ZZI  41 125
M  ZZM  42 1
M  ZZI  42 112
M  ZZM  43 1
M  ZZI  43 112
M  ZZM  44 36
M  ZZI  44 17
M  ZZM  45 36
M  ZZI  45 17
M  ZZM  46 5
M  ZZI  46 1
M  ZZM  47 5
M  ZZI  47 1
M  ZZM  48 5
M  ZZI  48 1
M  ZZM  49 5
M  ZZI  49 1
M  ZZM  50 5
M  ZZI  50 1
M  ZZM  51 5
M  ZZI  51 1
M  ZZM  52 5
M  ZZI  52 1
M  ZZM  53 28
M  ZZI  53 11
M  ZZM  54 5
M  ZZI  54 1
M  ZZM  55 5
M  ZZI  55 1
M  ZZM  56 5
M  ZZI  56 1
M  ZZM  57 5
M  ZZI  57 1
M  ZZM  58 5
M  ZZI  58 1
M  ZZM  59 5
M  ZZI  59 1
M  ZZM  60 5
M  ZZI  60 1
M  ZZM  61 5
M  ZZI  61 1
M  ZZM  62 5
M  ZZI  62 1
M  ZZM  63 5
M  ZZI  63 1
M  ZZM  64 5
M  ZZI  64 1
M  ZZM  65 5
M  ZZI  65 1
M  ZZM  66 5
M  ZZI  66 1
M  ZZM  67 5
M  ZZI  67 1
M  ZZM  68 5
M  ZZI  68 1
M  ZZM  69 5
M  ZZI  69 1
M  ZZM  70 21
M  ZZI  70 20
M  ZZM  71 5
M  ZZI  71 1
M  ZZM  72 5
M  ZZI  72 1
M  ZZM  73 5
M  ZZI  73 1
M  ZZM  74 5
M  ZZI  74 1
M  ZZM  75 5
M  ZZI  75 1
M  ZZM  76 5
M  ZZI  76 1
M  ZZM  77 5
M  ZZI  77 1
M  ZZM  78 5
M  ZZI  78 1
M  ZZM  79 5
M  ZZI  79 1
M  ZZM  80 5
M  ZZI  80 1
M  ZZM  81 5
M  ZZI  81 1
M  ZZM  82 5
M  ZZI  82 1
M  ZZM  83 5
M  ZZI  83 1
M  ZZM  84 5
M  ZZI  84 1
M  CHG  1   1   1
M  END
> <IX>
1

> <NAME>
VHL_5T8E_51.pdb

> <Score>
-11.167817

> <Natom>
84

> <Nflex>
11

> <Hbond>
-6.8692

> <Hphob>
-7.366216

> <VwInt>
-29.9514

> <Dsolv>
21.661633

> <SolEl>
21.089789

> <Eintl>
7.220898

> <RecConf>
ND

> <projPath>
VHL_maps/

> <NAME_>
VHL_5T8E_51.pdb

$$$$
