VHL_5T8E_17.pdb
  MOLSOFT 04032206433D

 75 78  0  0  1  0  0  0  0  0999 V2000
   14.4767    2.2886   -6.8376 C   0  0  0  0  0  0  0  0  0  0  0  0
   15.0297    2.0082   -5.4446 C   0  0  0  0  0  0  0  0  0  0  0  0
   14.0769    1.1395   -4.6346 C   0  0  0  0  0  0  0  0  0  0  0  0
   13.7297   -0.0737   -5.3755 N   0  0  0  0  0  0  0  0  0  0  0  0
   13.9635   -1.3833   -4.9485 C   0  0  0  0  0  0  0  0  0  0  0  0
   13.6862   -2.3578   -5.6311 O   0  0  0  0  0  0  0  0  0  0  0  0
   14.5916   -1.5303   -3.5747 C   0  0  0  0  0  0  0  0  0  0  0  0
   14.8361   -2.9808   -3.1091 C   0  0  2  0  0  0  0  0  0  0  0  0
   15.1311   -3.0421   -1.6773 N   0  0  0  0  0  0  0  0  0  0  0  0
   16.1189   -2.2848   -1.0640 C   0  0  0  0  0  0  0  0  0  0  0  0
   16.7783   -1.4314   -1.6409 O   0  0  0  0  0  0  0  0  0  0  0  0
   16.3670   -2.6463    0.4066 C   0  0  2  0  0  0  0  0  0  0  0  0
   16.6980   -1.4583    1.1955 N   0  0  0  0  0  0  0  0  0  0  0  0
   15.8354   -0.5199    1.7642 C   0  0  0  0  0  0  0  0  0  0  0  0
   16.2577    0.4256    2.4154 O   0  0  0  0  0  0  0  0  0  0  0  0
   14.3365   -0.7578    1.5824 C   0  0  2  0  0  0  0  0  0  0  0  0
   13.5171    0.4993    1.1950 C   0  0  0  0  0  0  0  0  0  0  0  0
   13.9640    1.0521   -0.1575 C   0  0  0  0  0  0  0  0  0  0  0  0
   13.4835    1.6313    2.2267 C   0  0  0  0  0  0  0  0  0  0  0  0
   13.8328   -1.4380    2.8160 C   0  0  0  0  0  0  0  0  0  0  0  0
   13.0908   -2.5591    2.6126 O   0  0  0  0  0  0  0  0  0  0  0  0
   12.6580   -3.0689    3.8370 N   0  0  0  0  0  0  0  0  0  0  0  0
   13.2103   -2.2764    4.7632 C   0  0  0  0  0  0  0  0  0  0  0  0
   12.9935   -2.5351    6.2023 C   0  0  0  0  0  0  0  0  0  0  0  0
   13.9532   -1.2303    4.1703 C   0  0  0  0  0  0  0  0  0  0  0  0
   18.1271   -1.3745    1.4338 C   0  0  0  0  0  0  0  0  0  0  0  0
   18.7409   -2.4825    0.5958 C   0  0  1  0  0  0  0  0  0  0  0  0
   19.8913   -3.0466    1.2198 O   0  0  0  0  0  0  0  0  0  0  0  0
   17.6199   -3.5040    0.4993 C   0  0  0  0  0  0  0  0  0  0  0  0
   15.8701   -3.7985   -3.8671 C   0  0  0  0  0  0  0  0  0  0  0  0
   16.8905   -3.2251   -4.6290 C   0  0  0  0  0  0  0  0  0  0  0  0
   17.8126   -4.0186   -5.2873 C   0  0  0  0  0  0  0  0  0  0  0  0
   17.7375   -5.3900   -5.1981 C   0  0  0  0  0  0  0  0  0  0  0  0
   18.6319   -6.1548   -5.8456 F   0  0  0  0  0  0  0  0  0  0  0  0
   16.7565   -5.9835   -4.4408 C   0  0  0  0  0  0  0  0  0  0  0  0
   15.8338   -5.1928   -3.7757 C   0  0  0  0  0  0  0  0  0  0  0  0
   13.1409    0.1633   -6.6893 C   0  0  0  0  0  0  0  0  0  0  0  0
   14.0843    0.9988   -7.5466 C   0  0  0  0  0  0  0  0  0  0  0  0
   13.6011    2.9412   -6.7590 H   0  0  0  0  0  0  0  0  0  0  0  0
   15.2193    2.8293   -7.4327 H   0  0  0  0  0  0  0  0  0  0  0  0
   15.9953    1.4986   -5.5384 H   0  0  0  0  0  0  0  0  0  0  0  0
   15.2139    2.9508   -4.9198 H   0  0  0  0  0  0  0  0  0  0  0  0
   14.5186    0.9188   -3.6623 H   0  0  0  0  0  0  0  0  0  0  0  0
   13.1489    1.6819   -4.4381 H   0  0  0  0  0  0  0  0  0  0  0  0
   15.5208   -0.9552   -3.5742 H   0  0  0  0  0  0  0  0  0  0  0  0
   13.9078   -1.0558   -2.8627 H   0  0  0  0  0  0  0  0  0  0  0  0
   13.8816   -3.5064   -3.2235 H   0  0  0  0  0  0  0  0  0  0  0  0
   14.6491   -3.7538   -1.1393 H   0  0  0  0  0  0  0  0  0  0  0  0
   15.4981   -3.1646    0.8259 H   0  0  0  0  0  0  0  0  0  0  0  0
   14.1977   -1.4540    0.7529 H   0  0  0  0  0  0  0  0  0  0  0  0
   12.4817    0.1705    1.0664 H   0  0  0  0  0  0  0  0  0  0  0  0
   14.9853    1.4429   -0.1203 H   0  0  0  0  0  0  0  0  0  0  0  0
   13.3089    1.8657   -0.4840 H   0  0  0  0  0  0  0  0  0  0  0  0
   13.9269    0.2771   -0.9271 H   0  0  0  0  0  0  0  0  0  0  0  0
   12.7803    2.4065    1.9097 H   0  0  0  0  0  0  0  0  0  0  0  0
   14.4565    2.1129    2.3501 H   0  0  0  0  0  0  0  0  0  0  0  0
   13.1430    1.2860    3.2052 H   0  0  0  0  0  0  0  0  0  0  0  0
   12.4086   -3.4460    6.3629 H   0  0  0  0  0  0  0  0  0  0  0  0
   12.4554   -1.7027    6.6653 H   0  0  0  0  0  0  0  0  0  0  0  0
   13.9500   -2.6551    6.7190 H   0  0  0  0  0  0  0  0  0  0  0  0
   14.4959   -0.4353    4.6617 H   0  0  0  0  0  0  0  0  0  0  0  0
   18.5012   -0.3845    1.1511 H   0  0  0  0  0  0  0  0  0  0  0  0
   18.3167   -1.5078    2.5052 H   0  0  0  0  0  0  0  0  0  0  0  0
   19.0213   -2.0984   -0.3916 H   0  0  0  0  0  0  0  0  0  0  0  0
   20.3801   -3.5225    0.5237 H   0  0  0  0  0  0  0  0  0  0  0  0
   17.6013   -4.1245    1.4030 H   0  0  0  0  0  0  0  0  0  0  0  0
   17.7500   -4.1785   -0.3517 H   0  0  0  0  0  0  0  0  0  0  0  0
   16.9919   -2.1493   -4.7195 H   0  0  0  0  0  0  0  0  0  0  0  0
   18.6055   -3.5677   -5.8676 H   0  0  0  0  0  0  0  0  0  0  0  0
   16.7232   -7.0642   -4.3733 H   0  0  0  0  0  0  0  0  0  0  0  0
   15.0719   -5.6812   -3.1759 H   0  0  0  0  0  0  0  0  0  0  0  0
   12.9127   -0.7805   -7.1922 H   0  0  0  0  0  0  0  0  0  0  0  0
   12.1892    0.6854   -6.5398 H   0  0  0  0  0  0  0  0  0  0  0  0
   13.6167    1.2396   -8.5036 H   0  0  0  0  0  0  0  0  0  0  0  0
   14.9875    0.4188   -7.7675 H   0  0  0  0  0  0  0  0  0  0  0  0
  1 39  1  0  0  0  0
  1 40  1  0  0  0  0
  1  2  1  0  0  0  0
  1 38  1  0  0  0  0
  2 41  1  0  0  0  0
  2 42  1  0  0  0  0
  2  3  1  0  0  0  0
  3 43  1  0  0  0  0
  3 44  1  0  0  0  0
  3  4  1  0  0  0  0
  4 37  1  0  0  0  0
  4  5  1  0  0  0  0
  5  6  2  0  0  0  0
  5  7  1  0  0  0  0
  7 45  1  0  0  0  0
  7 46  1  0  0  0  0
  8  7  1  0  0  0  0
  8 47  1  0  0  0  0
  8 30  1  0  0  0  0
  8  9  1  0  0  0  0
  9 48  1  0  0  0  0
  9 10  1  0  0  0  0
 10 11  2  0  0  0  0
 12 10  1  0  0  0  0
 12 49  1  0  0  0  0
 12 29  1  0  0  0  0
 12 13  1  0  0  0  0
 13 26  1  0  0  0  0
 13 14  1  0  0  0  0
 14 15  2  0  0  0  0
 16 14  1  0  0  0  0
 16 50  1  0  0  0  0
 16 17  1  0  0  0  0
 16 20  1  0  0  0  0
 17 51  1  0  0  0  0
 17 19  1  0  0  0  0
 17 18  1  0  0  0  0
 18 52  1  0  0  0  0
 18 53  1  0  0  0  0
 18 54  1  0  0  0  0
 19 55  1  0  0  0  0
 19 56  1  0  0  0  0
 19 57  1  0  0  0  0
 20 25  2  0  0  0  0
 20 21  1  0  0  0  0
 21 22  1  0  0  0  0
 22 23  2  0  0  0  0
 23 25  1  0  0  0  0
 23 24  1  0  0  0  0
 24 58  1  0  0  0  0
 24 59  1  0  0  0  0
 24 60  1  0  0  0  0
 25 61  1  0  0  0  0
 27 26  1  0  0  0  0
 26 62  1  0  0  0  0
 26 63  1  0  0  0  0
 27 29  1  0  0  0  0
 27 64  1  0  0  0  0
 27 28  1  0  0  0  0
 28 65  1  0  0  0  0
 29 66  1  0  0  0  0
 29 67  1  0  0  0  0
 30 31  1  0  0  0  0
 30 36  2  0  0  0  0
 31 68  1  0  0  0  0
 31 32  2  0  0  0  0
 32 69  1  0  0  0  0
 32 33  1  0  0  0  0
 33 34  1  0  0  0  0
 33 35  2  0  0  0  0
 35 70  1  0  0  0  0
 35 36  1  0  0  0  0
 36 71  1  0  0  0  0
 37 72  1  0  0  0  0
 37 73  1  0  0  0  0
 37 38  1  0  0  0  0
 38 74  1  0  0  0  0
 38 75  1  0  0  0  0
M  ZZC   1 c1
M  ZZC   2 c2
M  ZZC   3 c3
M  ZZC   4 n1
M  ZZC   5 c4
M  ZZC   6 o1
M  ZZC   7 c5
M  ZZC   8 c6
M  ZZC   9 n2
M  ZZC  10 c7
M  ZZC  11 o2
M  ZZC  12 c8
M  ZZC  13 n3
M  ZZC  14 c9
M  ZZC  15 o3
M  ZZC  16 c10
M  ZZC  17 c11
M  ZZC  18 c12
M  ZZC  19 c13
M  ZZC  20 c14
M  ZZC  21 o4
M  ZZC  22 n4
M  ZZC  23 c15
M  ZZC  24 c16
M  ZZC  25 c17
M  ZZC  26 c18
M  ZZC  27 c19
M  ZZC  28 o5
M  ZZC  29 c20
M  ZZC  30 c21
M  ZZC  31 c22
M  ZZC  32 c23
M  ZZC  33 c24
M  ZZC  34 f1
M  ZZC  35 c25
M  ZZC  36 c26
M  ZZC  37 c27
M  ZZC  38 c28
M  ZZC  39 h11
M  ZZC  40 h12
M  ZZC  41 h21
M  ZZC  42 h22
M  ZZC  43 h31
M  ZZC  44 h32
M  ZZC  45 h51
M  ZZC  46 h52
M  ZZC  47 h61
M  ZZC  48 h01
M  ZZC  49 h81
M  ZZC  50 h101
M  ZZC  51 h111
M  ZZC  52 h121
M  ZZC  53 h122
M  ZZC  54 h123
M  ZZC  55 h131
M  ZZC  56 h132
M  ZZC  57 h133
M  ZZC  58 h161
M  ZZC  59 h162
M  ZZC  60 h163
M  ZZC  61 h171
M  ZZC  62 h181
M  ZZC  63 h182
M  ZZC  64 h191
M  ZZC  65 h02
M  ZZC  66 h201
M  ZZC  67 h202
M  ZZC  68 h221
M  ZZC  69 h231
M  ZZC  70 h251
M  ZZC  71 h261
M  ZZC  72 h271
M  ZZC  73 h272
M  ZZC  74 h281
M  ZZC  75 h282
M  ZZM   1 1
M  ZZI   1 112
M  ZZM   2 1
M  ZZI   2 112
M  ZZM   3 1
M  ZZI   3 112
M  ZZM   4 10
M  ZZI   4 192
M  ZZM   5 3
M  ZZI   5 121
M  ZZM   6 7
M  ZZI   6 81
M  ZZM   7 1
M  ZZI   7 112
M  ZZM   8 1
M  ZZI   8 113
M  ZZM   9 10
M  ZZI   9 211
M  ZZM  10 3
M  ZZI  10 121
M  ZZM  11 7
M  ZZI  11 81
M  ZZM  12 1
M  ZZI  12 113
M  ZZM  13 10
M  ZZI  13 192
M  ZZM  14 3
M  ZZI  14 121
M  ZZM  15 7
M  ZZI  15 81
M  ZZM  16 1
M  ZZI  16 113
M  ZZM  17 1
M  ZZI  17 113
M  ZZM  18 1
M  ZZI  18 111
M  ZZM  19 1
M  ZZI  19 111
M  ZZM  20 63
M  ZZI  20 104
M  ZZM  21 59
M  ZZI  21 56
M  ZZM  22 65
M  ZZI  22 207
M  ZZM  23 64
M  ZZI  23 105
M  ZZM  24 1
M  ZZI  24 111
M  ZZM  25 64
M  ZZI  25 105
M  ZZM  26 1
M  ZZI  26 112
M  ZZM  27 1
M  ZZI  27 113
M  ZZM  28 6
M  ZZI  28 60
M  ZZM  29 1
M  ZZI  29 112
M  ZZM  30 37
M  ZZI  30 124
M  ZZM  31 37
M  ZZI  31 125
M  ZZM  32 37
M  ZZI  32 125
M  ZZM  33 37
M  ZZI  33 124
M  ZZM  34 11
M  ZZI  34 90
M  ZZM  35 37
M  ZZI  35 125
M  ZZM  36 37
M  ZZI  36 125
M  ZZM  37 1
M  ZZI  37 112
M  ZZM  38 1
M  ZZI  38 112
M  ZZM  39 5
M  ZZI  39 1
M  ZZM  40 5
M  ZZI  40 1
M  ZZM  41 5
M  ZZI  41 1
M  ZZM  42 5
M  ZZI  42 1
M  ZZM  43 5
M  ZZI  43 1
M  ZZM  44 5
M  ZZI  44 1
M  ZZM  45 5
M  ZZI  45 1
M  ZZM  46 5
M  ZZI  46 1
M  ZZM  47 5
M  ZZI  47 1
M  ZZM  48 28
M  ZZI  48 11
M  ZZM  49 5
M  ZZI  49 1
M  ZZM  50 5
M  ZZI  50 1
M  ZZM  51 5
M  ZZI  51 1
M  ZZM  52 5
M  ZZI  52 1
M  ZZM  53 5
M  ZZI  53 1
M  ZZM  54 5
M  ZZI  54 1
M  ZZM  55 5
M  ZZI  55 1
M  ZZM  56 5
M  ZZI  56 1
M  ZZM  57 5
M  ZZI  57 1
M  ZZM  58 5
M  ZZI  58 1
M  ZZM  59 5
M  ZZI  59 1
M  ZZM  60 5
M  ZZI  60 1
M  ZZM  61 5
M  ZZI  61 1
M  ZZM  62 5
M  ZZI  62 1
M  ZZM  63 5
M  ZZI  63 1
M  ZZM  64 5
M  ZZI  64 1
M  ZZM  65 21
M  ZZI  65 20
M  ZZM  66 5
M  ZZI  66 1
M  ZZM  67 5
M  ZZI  67 1
M  ZZM  68 5
M  ZZI  68 1
M  ZZM  69 5
M  ZZI  69 1
M  ZZM  70 5
M  ZZI  70 1
M  ZZM  71 5
M  ZZI  71 1
M  ZZM  72 5
M  ZZI  72 1
M  ZZM  73 5
M  ZZI  73 1
M  ZZM  74 5
M  ZZI  74 1
M  ZZM  75 5
M  ZZI  75 1
M  END
> <IX>
1

> <NAME>
VHL_5T8E_17.pdb

> <Score>
-10.540487

> <Natom>
75

> <Nflex>
11

> <Hbond>
-3.740826

> <Hphob>
-7.079113

> <VwInt>
-30.127343

> <Dsolv>
14.220307

> <SolEl>
18.143645

> <Eintl>
7.590191

> <RecConf>
ND

> <projPath>
VHL_maps/

> <NAME_>
VHL_5T8E_17.pdb

$$$$
