VHL_6MX8_2.pdb
  MOLSOFT 04032206433D

 65 67  0  0  1  0  0  0  0  0999 V2000
   18.3820   -6.9363   -5.3397 C   0  0  0  0  0  0  0  0  0  0  0  0
   17.2015   -6.0052   -5.2943 C   0  0  0  0  0  0  0  0  0  0  0  0
   16.1005   -6.3729   -5.6714 O   0  0  0  0  0  0  0  0  0  0  0  0
   17.4932   -4.7596   -4.7711 N   0  0  0  0  0  0  0  0  0  0  0  0
   16.5164   -3.6717   -4.6558 C   0  0  1  0  0  0  0  0  0  0  0  0
   15.8917   -3.5480   -3.2282 C   0  0  0  0  0  0  0  0  0  0  0  0
   14.6644   -2.6234   -3.2614 C   0  0  0  0  0  0  0  0  0  0  0  0
   15.4148   -4.9169   -2.7179 C   0  0  0  0  0  0  0  0  0  0  0  0
   16.8911   -2.9872   -2.2040 C   0  0  0  0  0  0  0  0  0  0  0  0
   17.2089   -2.3777   -5.1261 C   0  0  0  0  0  0  0  0  0  0  0  0
   18.3589   -2.1211   -4.8005 O   0  0  0  0  0  0  0  0  0  0  0  0
   16.4687   -1.4645   -5.8781 N   0  0  0  0  0  0  0  0  0  0  0  0
   17.0271   -0.1635   -6.2271 C   0  0  2  0  0  0  0  0  0  0  0  0
   17.1977    0.8052   -5.0646 C   0  0  0  0  0  0  0  0  0  0  0  0
   16.5342    0.7570   -4.0377 O   0  0  0  0  0  0  0  0  0  0  0  0
   18.1054    1.8032   -5.3641 N   0  0  0  0  0  0  0  0  0  0  0  0
   18.2125    3.0081   -4.5757 C   0  0  0  0  0  0  0  0  0  0  0  0
   17.2710    4.0567   -5.1100 C   0  0  0  0  0  0  0  0  0  0  0  0
   16.0750    4.3387   -4.4574 C   0  0  0  0  0  0  0  0  0  0  0  0
   15.2009    5.2877   -4.9598 C   0  0  0  0  0  0  0  0  0  0  0  0
   15.4960    5.9738   -6.1338 C   0  0  0  0  0  0  0  0  0  0  0  0
   14.6104    7.0127   -6.6387 C   0  0  0  0  0  0  0  0  0  0  0  0
   13.9327    7.1312   -7.8459 C   0  0  0  0  0  0  0  0  0  0  0  0
   13.8985    6.1449   -8.9495 C   0  0  0  0  0  0  0  0  0  0  0  0
   13.2274    8.3075   -8.0047 N   0  0  0  0  0  0  0  0  0  0  0  0
   13.3692    9.0514   -6.9310 C   0  0  0  0  0  0  0  0  0  0  0  0
   14.3113    8.4008   -5.6706 S   0  0  0  0  0  0  0  0  0  0  0  0
   16.6758    5.6701   -6.8044 C   0  0  0  0  0  0  0  0  0  0  0  0
   17.5527    4.7258   -6.2982 C   0  0  0  0  0  0  0  0  0  0  0  0
   16.0382    0.4495   -7.2127 C   0  0  0  0  0  0  0  0  0  0  0  0
   15.3753   -0.7540   -7.8402 C   0  0  1  0  0  0  0  0  0  0  0  0
   16.1750   -1.2328   -8.9307 O   0  0  0  0  0  0  0  0  0  0  0  0
   15.3226   -1.7727   -6.7095 C   0  0  0  0  0  0  0  0  0  0  0  0
   19.3282   -6.3901   -5.2834 H   0  0  0  0  0  0  0  0  0  0  0  0
   18.3637   -7.4927   -6.2807 H   0  0  0  0  0  0  0  0  0  0  0  0
   18.3132   -7.6368   -4.5044 H   0  0  0  0  0  0  0  0  0  0  0  0
   18.4425   -4.5750   -4.4692 H   0  0  0  0  0  0  0  0  0  0  0  0
   15.7289   -3.9113   -5.3566 H   0  0  0  0  0  0  0  0  0  0  0  0
   14.9397   -1.6030   -3.5475 H   0  0  0  0  0  0  0  0  0  0  0  0
   14.1819   -2.5643   -2.2807 H   0  0  0  0  0  0  0  0  0  0  0  0
   13.9146   -2.9605   -3.9819 H   0  0  0  0  0  0  0  0  0  0  0  0
   14.9279   -4.8346   -1.7411 H   0  0  0  0  0  0  0  0  0  0  0  0
   16.2409   -5.6232   -2.5990 H   0  0  0  0  0  0  0  0  0  0  0  0
   14.6882   -5.3630   -3.3999 H   0  0  0  0  0  0  0  0  0  0  0  0
   16.4709   -2.9929   -1.1929 H   0  0  0  0  0  0  0  0  0  0  0  0
   17.1696   -1.9523   -2.4243 H   0  0  0  0  0  0  0  0  0  0  0  0
   17.8095   -3.5764   -2.1746 H   0  0  0  0  0  0  0  0  0  0  0  0
   18.0008   -0.3300   -6.6899 H   0  0  0  0  0  0  0  0  0  0  0  0
   18.6484    1.7491   -6.2195 H   0  0  0  0  0  0  0  0  0  0  0  0
   17.9986    2.7827   -3.5253 H   0  0  0  0  0  0  0  0  0  0  0  0
   19.2484    3.3587   -4.6343 H   0  0  0  0  0  0  0  0  0  0  0  0
   15.8132    3.8130   -3.5433 H   0  0  0  0  0  0  0  0  0  0  0  0
   14.2777    5.4867   -4.4228 H   0  0  0  0  0  0  0  0  0  0  0  0
   14.8736    6.0762   -9.4396 H   0  0  0  0  0  0  0  0  0  0  0  0
   13.1629    6.4288   -9.7075 H   0  0  0  0  0  0  0  0  0  0  0  0
   13.6265    5.1519   -8.5793 H   0  0  0  0  0  0  0  0  0  0  0  0
   12.9207   10.0270   -6.8338 H   0  0  0  0  0  0  0  0  0  0  0  0
   16.9344    6.1892   -7.7231 H   0  0  0  0  0  0  0  0  0  0  0  0
   18.4698    4.5152   -6.8406 H   0  0  0  0  0  0  0  0  0  0  0  0
   15.2882    1.0552   -6.6903 H   0  0  0  0  0  0  0  0  0  0  0  0
   16.5407    1.0905   -7.9450 H   0  0  0  0  0  0  0  0  0  0  0  0
   14.3816   -0.5182   -8.2208 H   0  0  0  0  0  0  0  0  0  0  0  0
   17.1084   -1.1812   -8.6533 H   0  0  0  0  0  0  0  0  0  0  0  0
   15.3835   -2.7966   -7.0854 H   0  0  0  0  0  0  0  0  0  0  0  0
   14.4246   -1.6437   -6.0972 H   0  0  0  0  0  0  0  0  0  0  0  0
  1 34  1  0  0  0  0
  1 35  1  0  0  0  0
  1 36  1  0  0  0  0
  1  2  1  0  0  0  0
  2  3  2  0  0  0  0
  2  4  1  0  0  0  0
  4 37  1  0  0  0  0
  5  4  1  0  0  0  0
  5 38  1  0  0  0  0
  5  6  1  0  0  0  0
  5 10  1  0  0  0  0
  6  7  1  0  0  0  0
  6  8  1  0  0  0  0
  6  9  1  0  0  0  0
  7 39  1  0  0  0  0
  7 40  1  0  0  0  0
  7 41  1  0  0  0  0
  8 42  1  0  0  0  0
  8 43  1  0  0  0  0
  8 44  1  0  0  0  0
  9 45  1  0  0  0  0
  9 46  1  0  0  0  0
  9 47  1  0  0  0  0
 10 11  2  0  0  0  0
 10 12  1  0  0  0  0
 12 33  1  0  0  0  0
 13 12  1  0  0  0  0
 13 30  1  0  0  0  0
 13 48  1  0  0  0  0
 13 14  1  0  0  0  0
 14 15  2  0  0  0  0
 14 16  1  0  0  0  0
 16 49  1  0  0  0  0
 16 17  1  0  0  0  0
 17 50  1  0  0  0  0
 17 51  1  0  0  0  0
 17 18  1  0  0  0  0
 18 19  1  0  0  0  0
 18 29  2  0  0  0  0
 19 52  1  0  0  0  0
 19 20  2  0  0  0  0
 20 53  1  0  0  0  0
 20 21  1  0  0  0  0
 21 28  2  0  0  0  0
 21 22  1  0  0  0  0
 22 23  2  0  0  0  0
 22 27  1  0  0  0  0
 23 24  1  0  0  0  0
 23 25  1  0  0  0  0
 24 54  1  0  0  0  0
 24 55  1  0  0  0  0
 24 56  1  0  0  0  0
 25 26  2  0  0  0  0
 26 57  1  0  0  0  0
 26 27  1  0  0  0  0
 28 58  1  0  0  0  0
 28 29  1  0  0  0  0
 29 59  1  0  0  0  0
 31 30  1  0  0  0  0
 30 60  1  0  0  0  0
 30 61  1  0  0  0  0
 31 33  1  0  0  0  0
 31 62  1  0  0  0  0
 31 32  1  0  0  0  0
 32 63  1  0  0  0  0
 33 64  1  0  0  0  0
 33 65  1  0  0  0  0
M  ZZC   1 c1
M  ZZC   2 c2
M  ZZC   3 o1
M  ZZC   4 n1
M  ZZC   5 c3
M  ZZC   6 c4
M  ZZC   7 c5
M  ZZC   8 c6
M  ZZC   9 c7
M  ZZC  10 c8
M  ZZC  11 o2
M  ZZC  12 n2
M  ZZC  13 c9
M  ZZC  14 c10
M  ZZC  15 o3
M  ZZC  16 n3
M  ZZC  17 c11
M  ZZC  18 c12
M  ZZC  19 c13
M  ZZC  20 c14
M  ZZC  21 c15
M  ZZC  22 c16
M  ZZC  23 c17
M  ZZC  24 c18
M  ZZC  25 n4
M  ZZC  26 c19
M  ZZC  27 s1
M  ZZC  28 c20
M  ZZC  29 c21
M  ZZC  30 c22
M  ZZC  31 c23
M  ZZC  32 o4
M  ZZC  33 c24
M  ZZC  34 h11
M  ZZC  35 h12
M  ZZC  36 h13
M  ZZC  37 h01
M  ZZC  38 h31
M  ZZC  39 h51
M  ZZC  40 h52
M  ZZC  41 h53
M  ZZC  42 h61
M  ZZC  43 h62
M  ZZC  44 h63
M  ZZC  45 h71
M  ZZC  46 h72
M  ZZC  47 h73
M  ZZC  48 h91
M  ZZC  49 h02
M  ZZC  50 h111
M  ZZC  51 h112
M  ZZC  52 h131
M  ZZC  53 h141
M  ZZC  54 h181
M  ZZC  55 h182
M  ZZC  56 h183
M  ZZC  57 h191
M  ZZC  58 h201
M  ZZC  59 h211
M  ZZC  60 h221
M  ZZC  61 h222
M  ZZC  62 h231
M  ZZC  63 h41
M  ZZC  64 h241
M  ZZC  65 h242
M  ZZM   1 1
M  ZZI   1 111
M  ZZM   2 3
M  ZZI   2 121
M  ZZM   3 7
M  ZZI   3 81
M  ZZM   4 10
M  ZZI   4 211
M  ZZM   5 1
M  ZZI   5 113
M  ZZM   6 1
M  ZZI   6 110
M  ZZM   7 1
M  ZZI   7 111
M  ZZM   8 1
M  ZZI   8 111
M  ZZM   9 1
M  ZZI   9 111
M  ZZM  10 3
M  ZZI  10 121
M  ZZM  11 7
M  ZZI  11 81
M  ZZM  12 10
M  ZZI  12 192
M  ZZM  13 1
M  ZZI  13 113
M  ZZM  14 3
M  ZZI  14 121
M  ZZM  15 7
M  ZZI  15 81
M  ZZM  16 10
M  ZZI  16 211
M  ZZM  17 1
M  ZZI  17 112
M  ZZM  18 37
M  ZZI  18 124
M  ZZM  19 37
M  ZZI  19 125
M  ZZM  20 37
M  ZZI  20 125
M  ZZM  21 37
M  ZZI  21 124
M  ZZM  22 63
M  ZZI  22 104
M  ZZM  23 64
M  ZZI  23 105
M  ZZM  24 1
M  ZZI  24 111
M  ZZM  25 66
M  ZZI  25 222
M  ZZM  26 63
M  ZZI  26 104
M  ZZM  27 44
M  ZZI  27 248
M  ZZM  28 37
M  ZZI  28 125
M  ZZM  29 37
M  ZZI  29 125
M  ZZM  30 1
M  ZZI  30 112
M  ZZM  31 1
M  ZZI  31 113
M  ZZM  32 6
M  ZZI  32 60
M  ZZM  33 1
M  ZZI  33 112
M  ZZM  34 5
M  ZZI  34 1
M  ZZM  35 5
M  ZZI  35 1
M  ZZM  36 5
M  ZZI  36 1
M  ZZM  37 28
M  ZZI  37 11
M  ZZM  38 5
M  ZZI  38 1
M  ZZM  39 5
M  ZZI  39 1
M  ZZM  40 5
M  ZZI  40 1
M  ZZM  41 5
M  ZZI  41 1
M  ZZM  42 5
M  ZZI  42 1
M  ZZM  43 5
M  ZZI  43 1
M  ZZM  44 5
M  ZZI  44 1
M  ZZM  45 5
M  ZZI  45 1
M  ZZM  46 5
M  ZZI  46 1
M  ZZM  47 5
M  ZZI  47 1
M  ZZM  48 5
M  ZZI  48 1
M  ZZM  49 28
M  ZZI  49 11
M  ZZM  50 5
M  ZZI  50 1
M  ZZM  51 5
M  ZZI  51 1
M  ZZM  52 5
M  ZZI  52 1
M  ZZM  53 5
M  ZZI  53 1
M  ZZM  54 5
M  ZZI  54 1
M  ZZM  55 5
M  ZZI  55 1
M  ZZM  56 5
M  ZZI  56 1
M  ZZM  57 5
M  ZZI  57 1
M  ZZM  58 5
M  ZZI  58 1
M  ZZM  59 5
M  ZZI  59 1
M  ZZM  60 5
M  ZZI  60 1
M  ZZM  61 5
M  ZZI  61 1
M  ZZM  62 5
M  ZZI  62 1
M  ZZM  63 21
M  ZZI  63 20
M  ZZM  64 5
M  ZZI  64 1
M  ZZM  65 5
M  ZZI  65 1
M  END
> <IX>
1

> <NAME>
VHL_6MX8_2.pdb

> <Score>
-24.154657

> <Natom>
65

> <Nflex>
8

> <Hbond>
-7.83906

> <Hphob>
-6.360946

> <VwInt>
-30.252044

> <Dsolv>
21.232789

> <SolEl>
10.485165

> <Eintl>
4.245403

> <RecConf>
ND

> <projPath>
VHL_maps/

> <NAME_>
VHL_6MX8_2.pdb

$$$$
