VHL_2GQG_1.pdb
  MOLSOFT 04032206363D

 65 67  0  0  1  0  0  0  0  0999 V2000
   18.1261   -6.6972   -5.1442 C   0  0  0  0  0  0  0  0  0  0  0  0
   16.9140   -5.8188   -4.9918 C   0  0  0  0  0  0  0  0  0  0  0  0
   15.8267   -6.1770   -5.4104 O   0  0  0  0  0  0  0  0  0  0  0  0
   17.1617   -4.6368   -4.3217 N   0  0  0  0  0  0  0  0  0  0  0  0
   16.1552   -3.5974   -4.0497 C   0  0  1  0  0  0  0  0  0  0  0  0
   15.8831   -3.4367   -2.5247 C   0  0  0  0  0  0  0  0  0  0  0  0
   17.1322   -2.9886   -1.7528 C   0  0  0  0  0  0  0  0  0  0  0  0
   14.7718   -2.4238   -2.2259 C   0  0  0  0  0  0  0  0  0  0  0  0
   15.4058   -4.7888   -1.9801 C   0  0  0  0  0  0  0  0  0  0  0  0
   16.6762   -2.3472   -4.7895 C   0  0  0  0  0  0  0  0  0  0  0  0
   17.8743   -2.0917   -4.8196 O   0  0  0  0  0  0  0  0  0  0  0  0
   15.7469   -1.5493   -5.4634 N   0  0  0  0  0  0  0  0  0  0  0  0
   16.1747   -0.6155   -6.4945 C   0  0  2  0  0  0  0  0  0  0  0  0
   16.5776    0.7518   -5.9330 C   0  0  0  0  0  0  0  0  0  0  0  0
   16.0352    1.2546   -4.9582 O   0  0  0  0  0  0  0  0  0  0  0  0
   17.5534    1.3867   -6.6820 N   0  0  0  0  0  0  0  0  0  0  0  0
   18.0018    2.7366   -6.3753 C   0  0  0  0  0  0  0  0  0  0  0  0
   19.4600    3.0257   -6.6585 C   0  0  0  0  0  0  0  0  0  0  0  0
   19.9638    4.2953   -6.3850 C   0  0  0  0  0  0  0  0  0  0  0  0
   21.3019    4.6036   -6.5811 C   0  0  0  0  0  0  0  0  0  0  0  0
   22.1847    3.6488   -7.0708 C   0  0  0  0  0  0  0  0  0  0  0  0
   23.6083    3.9218   -7.2296 C   0  0  0  0  0  0  0  0  0  0  0  0
   24.4259    3.8914   -8.3532 C   0  0  0  0  0  0  0  0  0  0  0  0
   24.0198    3.6293   -9.7513 C   0  0  0  0  0  0  0  0  0  0  0  0
   25.7639    4.1280   -8.1106 N   0  0  0  0  0  0  0  0  0  0  0  0
   25.9498    4.3564   -6.8307 C   0  0  0  0  0  0  0  0  0  0  0  0
   24.5560    4.3099   -5.8460 S   0  0  0  0  0  0  0  0  0  0  0  0
   21.6780    2.3944   -7.3750 C   0  0  0  0  0  0  0  0  0  0  0  0
   20.3481    2.0827   -7.1658 C   0  0  0  0  0  0  0  0  0  0  0  0
   14.9564   -0.4986   -7.3985 C   0  0  0  0  0  0  0  0  0  0  0  0
   13.7803   -0.6407   -6.4426 C   0  0  1  0  0  0  0  0  0  0  0  0
   12.6489   -1.2375   -7.0720 O   0  0  0  0  0  0  0  0  0  0  0  0
   14.2988   -1.5581   -5.3486 C   0  0  0  0  0  0  0  0  0  0  0  0
   19.0416   -6.1019   -5.2125 H   0  0  0  0  0  0  0  0  0  0  0  0
   18.0321   -7.2908   -6.0585 H   0  0  0  0  0  0  0  0  0  0  0  0
   18.1880   -7.3693   -4.2850 H   0  0  0  0  0  0  0  0  0  0  0  0
   18.1222   -4.4334   -4.0694 H   0  0  0  0  0  0  0  0  0  0  0  0
   15.2296   -3.9248   -4.5217 H   0  0  0  0  0  0  0  0  0  0  0  0
   16.9373   -2.9299   -0.6771 H   0  0  0  0  0  0  0  0  0  0  0  0
   17.4764   -2.0008   -2.0745 H   0  0  0  0  0  0  0  0  0  0  0  0
   17.9596   -3.6824   -1.8871 H   0  0  0  0  0  0  0  0  0  0  0  0
   15.0641   -1.4086   -2.5078 H   0  0  0  0  0  0  0  0  0  0  0  0
   14.5379   -2.3921   -1.1566 H   0  0  0  0  0  0  0  0  0  0  0  0
   13.8438   -2.6846   -2.7436 H   0  0  0  0  0  0  0  0  0  0  0  0
   15.1361   -4.7128   -0.9244 H   0  0  0  0  0  0  0  0  0  0  0  0
   16.1741   -5.5587   -2.0728 H   0  0  0  0  0  0  0  0  0  0  0  0
   14.5217   -5.1487   -2.5161 H   0  0  0  0  0  0  0  0  0  0  0  0
   17.0243   -1.0382   -7.0396 H   0  0  0  0  0  0  0  0  0  0  0  0
   17.9344    0.9110   -7.4936 H   0  0  0  0  0  0  0  0  0  0  0  0
   17.3802    3.4083   -6.9773 H   0  0  0  0  0  0  0  0  0  0  0  0
   17.7954    2.9445   -5.3201 H   0  0  0  0  0  0  0  0  0  0  0  0
   19.3058    5.0647   -5.9911 H   0  0  0  0  0  0  0  0  0  0  0  0
   21.6527    5.6021   -6.3376 H   0  0  0  0  0  0  0  0  0  0  0  0
   23.8497    2.5622   -9.9072 H   0  0  0  0  0  0  0  0  0  0  0  0
   24.7971    3.9474  -10.4519 H   0  0  0  0  0  0  0  0  0  0  0  0
   23.1054    4.1732  -10.0030 H   0  0  0  0  0  0  0  0  0  0  0  0
   26.9271    4.5630   -6.4178 H   0  0  0  0  0  0  0  0  0  0  0  0
   22.3297    1.6204   -7.7601 H   0  0  0  0  0  0  0  0  0  0  0  0
   20.0286    1.0730   -7.3888 H   0  0  0  0  0  0  0  0  0  0  0  0
   14.9148    0.4390   -7.9627 H   0  0  0  0  0  0  0  0  0  0  0  0
   14.9494   -1.3159   -8.1285 H   0  0  0  0  0  0  0  0  0  0  0  0
   13.4814    0.3290   -6.0283 H   0  0  0  0  0  0  0  0  0  0  0  0
   12.3361   -0.6364   -7.7716 H   0  0  0  0  0  0  0  0  0  0  0  0
   13.9028   -2.5729   -5.4082 H   0  0  0  0  0  0  0  0  0  0  0  0
   14.0171   -1.1455   -4.3798 H   0  0  0  0  0  0  0  0  0  0  0  0
  1 34  1  0  0  0  0
  1 35  1  0  0  0  0
  1 36  1  0  0  0  0
  1  2  1  0  0  0  0
  2  3  2  0  0  0  0
  2  4  1  0  0  0  0
  4 37  1  0  0  0  0
  5  4  1  0  0  0  0
  5 38  1  0  0  0  0
  5  6  1  0  0  0  0
  5 10  1  0  0  0  0
  6  7  1  0  0  0  0
  6  8  1  0  0  0  0
  6  9  1  0  0  0  0
  7 39  1  0  0  0  0
  7 40  1  0  0  0  0
  7 41  1  0  0  0  0
  8 42  1  0  0  0  0
  8 43  1  0  0  0  0
  8 44  1  0  0  0  0
  9 45  1  0  0  0  0
  9 46  1  0  0  0  0
  9 47  1  0  0  0  0
 10 11  2  0  0  0  0
 10 12  1  0  0  0  0
 12 33  1  0  0  0  0
 13 12  1  0  0  0  0
 13 30  1  0  0  0  0
 13 48  1  0  0  0  0
 13 14  1  0  0  0  0
 14 15  2  0  0  0  0
 14 16  1  0  0  0  0
 16 49  1  0  0  0  0
 16 17  1  0  0  0  0
 17 50  1  0  0  0  0
 17 51  1  0  0  0  0
 17 18  1  0  0  0  0
 18 19  1  0  0  0  0
 18 29  2  0  0  0  0
 19 52  1  0  0  0  0
 19 20  2  0  0  0  0
 20 53  1  0  0  0  0
 20 21  1  0  0  0  0
 21 28  2  0  0  0  0
 21 22  1  0  0  0  0
 22 23  2  0  0  0  0
 22 27  1  0  0  0  0
 23 24  1  0  0  0  0
 23 25  1  0  0  0  0
 24 54  1  0  0  0  0
 24 55  1  0  0  0  0
 24 56  1  0  0  0  0
 25 26  2  0  0  0  0
 26 57  1  0  0  0  0
 26 27  1  0  0  0  0
 28 58  1  0  0  0  0
 28 29  1  0  0  0  0
 29 59  1  0  0  0  0
 31 30  1  0  0  0  0
 30 60  1  0  0  0  0
 30 61  1  0  0  0  0
 31 33  1  0  0  0  0
 31 62  1  0  0  0  0
 31 32  1  0  0  0  0
 32 63  1  0  0  0  0
 33 64  1  0  0  0  0
 33 65  1  0  0  0  0
M  ZZC   1 c1
M  ZZC   2 c2
M  ZZC   3 o1
M  ZZC   4 n1
M  ZZC   5 c3
M  ZZC   6 c4
M  ZZC   7 c5
M  ZZC   8 c6
M  ZZC   9 c7
M  ZZC  10 c8
M  ZZC  11 o2
M  ZZC  12 n2
M  ZZC  13 c9
M  ZZC  14 c10
M  ZZC  15 o3
M  ZZC  16 n3
M  ZZC  17 c11
M  ZZC  18 c12
M  ZZC  19 c13
M  ZZC  20 c14
M  ZZC  21 c15
M  ZZC  22 c16
M  ZZC  23 c17
M  ZZC  24 c18
M  ZZC  25 n4
M  ZZC  26 c19
M  ZZC  27 s1
M  ZZC  28 c20
M  ZZC  29 c21
M  ZZC  30 c22
M  ZZC  31 c23
M  ZZC  32 o4
M  ZZC  33 c24
M  ZZC  34 h11
M  ZZC  35 h12
M  ZZC  36 h13
M  ZZC  37 h01
M  ZZC  38 h31
M  ZZC  39 h51
M  ZZC  40 h52
M  ZZC  41 h53
M  ZZC  42 h61
M  ZZC  43 h62
M  ZZC  44 h63
M  ZZC  45 h71
M  ZZC  46 h72
M  ZZC  47 h73
M  ZZC  48 h91
M  ZZC  49 h02
M  ZZC  50 h111
M  ZZC  51 h112
M  ZZC  52 h131
M  ZZC  53 h141
M  ZZC  54 h181
M  ZZC  55 h182
M  ZZC  56 h183
M  ZZC  57 h191
M  ZZC  58 h201
M  ZZC  59 h211
M  ZZC  60 h221
M  ZZC  61 h222
M  ZZC  62 h231
M  ZZC  63 h41
M  ZZC  64 h241
M  ZZC  65 h242
M  ZZM   1 1
M  ZZI   1 111
M  ZZM   2 3
M  ZZI   2 121
M  ZZM   3 7
M  ZZI   3 81
M  ZZM   4 10
M  ZZI   4 211
M  ZZM   5 1
M  ZZI   5 113
M  ZZM   6 1
M  ZZI   6 110
M  ZZM   7 1
M  ZZI   7 111
M  ZZM   8 1
M  ZZI   8 111
M  ZZM   9 1
M  ZZI   9 111
M  ZZM  10 3
M  ZZI  10 121
M  ZZM  11 7
M  ZZI  11 81
M  ZZM  12 10
M  ZZI  12 192
M  ZZM  13 1
M  ZZI  13 113
M  ZZM  14 3
M  ZZI  14 121
M  ZZM  15 7
M  ZZI  15 81
M  ZZM  16 10
M  ZZI  16 211
M  ZZM  17 1
M  ZZI  17 112
M  ZZM  18 37
M  ZZI  18 124
M  ZZM  19 37
M  ZZI  19 125
M  ZZM  20 37
M  ZZI  20 125
M  ZZM  21 37
M  ZZI  21 124
M  ZZM  22 63
M  ZZI  22 104
M  ZZM  23 64
M  ZZI  23 105
M  ZZM  24 1
M  ZZI  24 111
M  ZZM  25 66
M  ZZI  25 222
M  ZZM  26 63
M  ZZI  26 104
M  ZZM  27 44
M  ZZI  27 248
M  ZZM  28 37
M  ZZI  28 125
M  ZZM  29 37
M  ZZI  29 125
M  ZZM  30 1
M  ZZI  30 112
M  ZZM  31 1
M  ZZI  31 113
M  ZZM  32 6
M  ZZI  32 60
M  ZZM  33 1
M  ZZI  33 112
M  ZZM  34 5
M  ZZI  34 1
M  ZZM  35 5
M  ZZI  35 1
M  ZZM  36 5
M  ZZI  36 1
M  ZZM  37 28
M  ZZI  37 11
M  ZZM  38 5
M  ZZI  38 1
M  ZZM  39 5
M  ZZI  39 1
M  ZZM  40 5
M  ZZI  40 1
M  ZZM  41 5
M  ZZI  41 1
M  ZZM  42 5
M  ZZI  42 1
M  ZZM  43 5
M  ZZI  43 1
M  ZZM  44 5
M  ZZI  44 1
M  ZZM  45 5
M  ZZI  45 1
M  ZZM  46 5
M  ZZI  46 1
M  ZZM  47 5
M  ZZI  47 1
M  ZZM  48 5
M  ZZI  48 1
M  ZZM  49 28
M  ZZI  49 11
M  ZZM  50 5
M  ZZI  50 1
M  ZZM  51 5
M  ZZI  51 1
M  ZZM  52 5
M  ZZI  52 1
M  ZZM  53 5
M  ZZI  53 1
M  ZZM  54 5
M  ZZI  54 1
M  ZZM  55 5
M  ZZI  55 1
M  ZZM  56 5
M  ZZI  56 1
M  ZZM  57 5
M  ZZI  57 1
M  ZZM  58 5
M  ZZI  58 1
M  ZZM  59 5
M  ZZI  59 1
M  ZZM  60 5
M  ZZI  60 1
M  ZZM  61 5
M  ZZI  61 1
M  ZZM  62 5
M  ZZI  62 1
M  ZZM  63 21
M  ZZI  63 20
M  ZZM  64 5
M  ZZI  64 1
M  ZZM  65 5
M  ZZI  65 1
M  END
> <IX>
1

> <NAME>
VHL_2GQG_1.pdb

> <Score>
-10.933159

> <Natom>
65

> <Nflex>
8

> <Hbond>
-4.963145

> <Hphob>
-6.402616

> <VwInt>
-28.190841

> <Dsolv>
16.910206

> <SolEl>
17.200589

> <Eintl>
8.781914

> <RecConf>
ND

> <projPath>
VHL_maps/

> <NAME_>
VHL_2GQG_1.pdb

$$$$
