VHL_2GQG_20.pdb
  MOLSOFT 04032206383D

 65 67  0  0  1  0  0  0  0  0999 V2000
   18.3559   -6.9384   -5.3231 C   0  0  0  0  0  0  0  0  0  0  0  0
   17.1803   -6.0017   -5.2850 C   0  0  0  0  0  0  0  0  0  0  0  0
   16.0792   -6.3637   -5.6671 O   0  0  0  0  0  0  0  0  0  0  0  0
   17.4755   -4.7593   -4.7567 N   0  0  0  0  0  0  0  0  0  0  0  0
   16.5034   -3.6673   -4.6403 C   0  0  1  0  0  0  0  0  0  0  0  0
   15.8843   -3.5395   -3.2110 C   0  0  0  0  0  0  0  0  0  0  0  0
   16.8895   -2.9836   -2.1898 C   0  0  0  0  0  0  0  0  0  0  0  0
   15.4018   -4.9063   -2.7001 C   0  0  0  0  0  0  0  0  0  0  0  0
   14.6615   -2.6086   -3.2417 C   0  0  0  0  0  0  0  0  0  0  0  0
   17.2001   -2.3774   -5.1160 C   0  0  0  0  0  0  0  0  0  0  0  0
   18.3516   -2.1239   -4.7934 O   0  0  0  0  0  0  0  0  0  0  0  0
   16.4615   -1.4640   -5.8693 N   0  0  0  0  0  0  0  0  0  0  0  0
   17.0246   -0.1667   -6.2240 C   0  0  2  0  0  0  0  0  0  0  0  0
   17.2035    0.8053   -5.0655 C   0  0  0  0  0  0  0  0  0  0  0  0
   16.5484    0.7603   -4.0331 O   0  0  0  0  0  0  0  0  0  0  0  0
   18.1104    1.8011   -5.3749 N   0  0  0  0  0  0  0  0  0  0  0  0
   18.2242    3.0089   -4.5919 C   0  0  0  0  0  0  0  0  0  0  0  0
   17.2812    4.0570   -5.1245 C   0  0  0  0  0  0  0  0  0  0  0  0
   16.0828    4.3327   -4.4738 C   0  0  0  0  0  0  0  0  0  0  0  0
   15.2067    5.2803   -4.9751 C   0  0  0  0  0  0  0  0  0  0  0  0
   15.5027    5.9719   -6.1457 C   0  0  0  0  0  0  0  0  0  0  0  0
   14.6154    7.0104   -6.6482 C   0  0  0  0  0  0  0  0  0  0  0  0
   13.9337    7.1282   -7.8531 C   0  0  0  0  0  0  0  0  0  0  0  0
   13.8967    6.1415   -8.9561 C   0  0  0  0  0  0  0  0  0  0  0  0
   13.2260    8.3034   -8.0091 N   0  0  0  0  0  0  0  0  0  0  0  0
   13.3704    9.0474   -6.9357 C   0  0  0  0  0  0  0  0  0  0  0  0
   14.3186    8.3982   -5.6789 S   0  0  0  0  0  0  0  0  0  0  0  0
   16.6846    5.6734   -6.8151 C   0  0  0  0  0  0  0  0  0  0  0  0
   17.5633    4.7300   -6.3102 C   0  0  0  0  0  0  0  0  0  0  0  0
   16.0354    0.4470   -7.2090 C   0  0  0  0  0  0  0  0  0  0  0  0
   15.3706   -0.7566   -7.8346 C   0  0  1  0  0  0  0  0  0  0  0  0
   16.1694   -1.2377   -8.9249 O   0  0  0  0  0  0  0  0  0  0  0  0
   15.3167   -1.7732   -6.7021 C   0  0  0  0  0  0  0  0  0  0  0  0
   19.3029   -6.3905   -5.3407 H   0  0  0  0  0  0  0  0  0  0  0  0
   18.2980   -7.5508   -6.2271 H   0  0  0  0  0  0  0  0  0  0  0  0
   18.3203   -7.5867   -4.4451 H   0  0  0  0  0  0  0  0  0  0  0  0
   18.4247   -4.5812   -4.4503 H   0  0  0  0  0  0  0  0  0  0  0  0
   15.7102   -3.9038   -5.3358 H   0  0  0  0  0  0  0  0  0  0  0  0
   16.4720   -2.9872   -1.1776 H   0  0  0  0  0  0  0  0  0  0  0  0
   17.1723   -1.9502   -2.4111 H   0  0  0  0  0  0  0  0  0  0  0  0
   17.8053   -3.5772   -2.1630 H   0  0  0  0  0  0  0  0  0  0  0  0
   14.9148   -4.8212   -1.7238 H   0  0  0  0  0  0  0  0  0  0  0  0
   16.2253   -5.6155   -2.5806 H   0  0  0  0  0  0  0  0  0  0  0  0
   14.6742   -5.3503   -3.3824 H   0  0  0  0  0  0  0  0  0  0  0  0
   14.9295   -1.5867   -3.5222 H   0  0  0  0  0  0  0  0  0  0  0  0
   14.1783   -2.5502   -2.2610 H   0  0  0  0  0  0  0  0  0  0  0  0
   13.9077   -2.9626   -3.9521 H   0  0  0  0  0  0  0  0  0  0  0  0
   17.9963   -0.3405   -6.6886 H   0  0  0  0  0  0  0  0  0  0  0  0
   18.6471    1.7440   -6.2340 H   0  0  0  0  0  0  0  0  0  0  0  0
   18.0166    2.7885   -3.5392 H   0  0  0  0  0  0  0  0  0  0  0  0
   19.2604    3.3572   -4.6583 H   0  0  0  0  0  0  0  0  0  0  0  0
   15.8200    3.8021   -3.5628 H   0  0  0  0  0  0  0  0  0  0  0  0
   14.2820    5.4749   -4.4390 H   0  0  0  0  0  0  0  0  0  0  0  0
   14.8777    6.0514   -9.4311 H   0  0  0  0  0  0  0  0  0  0  0  0
   13.1793    6.4392   -9.7260 H   0  0  0  0  0  0  0  0  0  0  0  0
   13.5978    5.1553   -8.5885 H   0  0  0  0  0  0  0  0  0  0  0  0
   12.9208   10.0223   -6.8367 H   0  0  0  0  0  0  0  0  0  0  0  0
   16.9434    6.1962   -7.7317 H   0  0  0  0  0  0  0  0  0  0  0  0
   18.4815    4.5228   -6.8523 H   0  0  0  0  0  0  0  0  0  0  0  0
   15.2871    1.0550   -6.6869 H   0  0  0  0  0  0  0  0  0  0  0  0
   16.5389    1.0857   -7.9427 H   0  0  0  0  0  0  0  0  0  0  0  0
   14.3770   -0.5198   -8.2150 H   0  0  0  0  0  0  0  0  0  0  0  0
   17.1028   -1.1883   -8.6474 H   0  0  0  0  0  0  0  0  0  0  0  0
   15.3799   -2.7974   -7.0769 H   0  0  0  0  0  0  0  0  0  0  0  0
   14.4178   -1.6452   -6.0908 H   0  0  0  0  0  0  0  0  0  0  0  0
  1 34  1  0  0  0  0
  1 35  1  0  0  0  0
  1 36  1  0  0  0  0
  1  2  1  0  0  0  0
  2  3  2  0  0  0  0
  2  4  1  0  0  0  0
  4 37  1  0  0  0  0
  5  4  1  0  0  0  0
  5 38  1  0  0  0  0
  5  6  1  0  0  0  0
  5 10  1  0  0  0  0
  6  7  1  0  0  0  0
  6  8  1  0  0  0  0
  6  9  1  0  0  0  0
  7 39  1  0  0  0  0
  7 40  1  0  0  0  0
  7 41  1  0  0  0  0
  8 42  1  0  0  0  0
  8 43  1  0  0  0  0
  8 44  1  0  0  0  0
  9 45  1  0  0  0  0
  9 46  1  0  0  0  0
  9 47  1  0  0  0  0
 10 11  2  0  0  0  0
 10 12  1  0  0  0  0
 12 33  1  0  0  0  0
 13 12  1  0  0  0  0
 13 30  1  0  0  0  0
 13 48  1  0  0  0  0
 13 14  1  0  0  0  0
 14 15  2  0  0  0  0
 14 16  1  0  0  0  0
 16 49  1  0  0  0  0
 16 17  1  0  0  0  0
 17 50  1  0  0  0  0
 17 51  1  0  0  0  0
 17 18  1  0  0  0  0
 18 19  1  0  0  0  0
 18 29  2  0  0  0  0
 19 52  1  0  0  0  0
 19 20  2  0  0  0  0
 20 53  1  0  0  0  0
 20 21  1  0  0  0  0
 21 28  2  0  0  0  0
 21 22  1  0  0  0  0
 22 23  2  0  0  0  0
 22 27  1  0  0  0  0
 23 24  1  0  0  0  0
 23 25  1  0  0  0  0
 24 54  1  0  0  0  0
 24 55  1  0  0  0  0
 24 56  1  0  0  0  0
 25 26  2  0  0  0  0
 26 57  1  0  0  0  0
 26 27  1  0  0  0  0
 28 58  1  0  0  0  0
 28 29  1  0  0  0  0
 29 59  1  0  0  0  0
 31 30  1  0  0  0  0
 30 60  1  0  0  0  0
 30 61  1  0  0  0  0
 31 33  1  0  0  0  0
 31 62  1  0  0  0  0
 31 32  1  0  0  0  0
 32 63  1  0  0  0  0
 33 64  1  0  0  0  0
 33 65  1  0  0  0  0
M  ZZC   1 c1
M  ZZC   2 c2
M  ZZC   3 o1
M  ZZC   4 n1
M  ZZC   5 c3
M  ZZC   6 c4
M  ZZC   7 c5
M  ZZC   8 c6
M  ZZC   9 c7
M  ZZC  10 c8
M  ZZC  11 o2
M  ZZC  12 n2
M  ZZC  13 c9
M  ZZC  14 c10
M  ZZC  15 o3
M  ZZC  16 n3
M  ZZC  17 c11
M  ZZC  18 c12
M  ZZC  19 c13
M  ZZC  20 c14
M  ZZC  21 c15
M  ZZC  22 c16
M  ZZC  23 c17
M  ZZC  24 c18
M  ZZC  25 n4
M  ZZC  26 c19
M  ZZC  27 s1
M  ZZC  28 c20
M  ZZC  29 c21
M  ZZC  30 c22
M  ZZC  31 c23
M  ZZC  32 o4
M  ZZC  33 c24
M  ZZC  34 h11
M  ZZC  35 h12
M  ZZC  36 h13
M  ZZC  37 h01
M  ZZC  38 h31
M  ZZC  39 h51
M  ZZC  40 h52
M  ZZC  41 h53
M  ZZC  42 h61
M  ZZC  43 h62
M  ZZC  44 h63
M  ZZC  45 h71
M  ZZC  46 h72
M  ZZC  47 h73
M  ZZC  48 h91
M  ZZC  49 h02
M  ZZC  50 h111
M  ZZC  51 h112
M  ZZC  52 h131
M  ZZC  53 h141
M  ZZC  54 h181
M  ZZC  55 h182
M  ZZC  56 h183
M  ZZC  57 h191
M  ZZC  58 h201
M  ZZC  59 h211
M  ZZC  60 h221
M  ZZC  61 h222
M  ZZC  62 h231
M  ZZC  63 h41
M  ZZC  64 h241
M  ZZC  65 h242
M  ZZM   1 1
M  ZZI   1 111
M  ZZM   2 3
M  ZZI   2 121
M  ZZM   3 7
M  ZZI   3 81
M  ZZM   4 10
M  ZZI   4 211
M  ZZM   5 1
M  ZZI   5 113
M  ZZM   6 1
M  ZZI   6 110
M  ZZM   7 1
M  ZZI   7 111
M  ZZM   8 1
M  ZZI   8 111
M  ZZM   9 1
M  ZZI   9 111
M  ZZM  10 3
M  ZZI  10 121
M  ZZM  11 7
M  ZZI  11 81
M  ZZM  12 10
M  ZZI  12 192
M  ZZM  13 1
M  ZZI  13 113
M  ZZM  14 3
M  ZZI  14 121
M  ZZM  15 7
M  ZZI  15 81
M  ZZM  16 10
M  ZZI  16 211
M  ZZM  17 1
M  ZZI  17 112
M  ZZM  18 37
M  ZZI  18 124
M  ZZM  19 37
M  ZZI  19 125
M  ZZM  20 37
M  ZZI  20 125
M  ZZM  21 37
M  ZZI  21 124
M  ZZM  22 63
M  ZZI  22 104
M  ZZM  23 64
M  ZZI  23 105
M  ZZM  24 1
M  ZZI  24 111
M  ZZM  25 66
M  ZZI  25 222
M  ZZM  26 63
M  ZZI  26 104
M  ZZM  27 44
M  ZZI  27 248
M  ZZM  28 37
M  ZZI  28 125
M  ZZM  29 37
M  ZZI  29 125
M  ZZM  30 1
M  ZZI  30 112
M  ZZM  31 1
M  ZZI  31 113
M  ZZM  32 6
M  ZZI  32 60
M  ZZM  33 1
M  ZZI  33 112
M  ZZM  34 5
M  ZZI  34 1
M  ZZM  35 5
M  ZZI  35 1
M  ZZM  36 5
M  ZZI  36 1
M  ZZM  37 28
M  ZZI  37 11
M  ZZM  38 5
M  ZZI  38 1
M  ZZM  39 5
M  ZZI  39 1
M  ZZM  40 5
M  ZZI  40 1
M  ZZM  41 5
M  ZZI  41 1
M  ZZM  42 5
M  ZZI  42 1
M  ZZM  43 5
M  ZZI  43 1
M  ZZM  44 5
M  ZZI  44 1
M  ZZM  45 5
M  ZZI  45 1
M  ZZM  46 5
M  ZZI  46 1
M  ZZM  47 5
M  ZZI  47 1
M  ZZM  48 5
M  ZZI  48 1
M  ZZM  49 28
M  ZZI  49 11
M  ZZM  50 5
M  ZZI  50 1
M  ZZM  51 5
M  ZZI  51 1
M  ZZM  52 5
M  ZZI  52 1
M  ZZM  53 5
M  ZZI  53 1
M  ZZM  54 5
M  ZZI  54 1
M  ZZM  55 5
M  ZZI  55 1
M  ZZM  56 5
M  ZZI  56 1
M  ZZM  57 5
M  ZZI  57 1
M  ZZM  58 5
M  ZZI  58 1
M  ZZM  59 5
M  ZZI  59 1
M  ZZM  60 5
M  ZZI  60 1
M  ZZM  61 5
M  ZZI  61 1
M  ZZM  62 5
M  ZZI  62 1
M  ZZM  63 21
M  ZZI  63 20
M  ZZM  64 5
M  ZZI  64 1
M  ZZM  65 5
M  ZZI  65 1
M  END
> <IX>
1

> <NAME>
VHL_2GQG_20.pdb

> <Score>
-24.882071

> <Natom>
65

> <Nflex>
8

> <Hbond>
-7.797399

> <Hphob>
-6.20744

> <VwInt>
-30.171136

> <Dsolv>
21.898474

> <SolEl>
10.174584

> <Eintl>
2.060648

> <RecConf>
ND

> <projPath>
VHL_maps/

> <NAME_>
VHL_2GQG_20.pdb

$$$$
