VHL_5T8E_47.pdb
  MOLSOFT 04032206433D

 68 70  0  0  1  0  0  0  0  0999 V2000
   18.1377   -6.5839   -5.1433 C   0  0  0  0  0  0  0  0  0  0  0  0
   16.9131   -5.7275   -4.9669 C   0  0  0  0  0  0  0  0  0  0  0  0
   15.8230   -6.1081   -5.3575 O   0  0  0  0  0  0  0  0  0  0  0  0
   17.1532   -4.5363   -4.3101 N   0  0  0  0  0  0  0  0  0  0  0  0
   16.1346   -3.5106   -4.0311 C   0  0  1  0  0  0  0  0  0  0  0  0
   15.9082   -3.3215   -2.5009 C   0  0  0  0  0  0  0  0  0  0  0  0
   15.4566   -4.6638   -1.9112 C   0  0  0  0  0  0  0  0  0  0  0  0
   14.8012   -2.3078   -2.1885 C   0  0  0  0  0  0  0  0  0  0  0  0
   17.1789   -2.8544   -1.7765 C   0  0  0  0  0  0  0  0  0  0  0  0
   16.6063   -2.2636   -4.8117 C   0  0  0  0  0  0  0  0  0  0  0  0
   17.7976   -1.9815   -4.8742 O   0  0  0  0  0  0  0  0  0  0  0  0
   15.6391   -1.5013   -5.4770 N   0  0  0  0  0  0  0  0  0  0  0  0
   16.0115   -0.5704   -6.5340 C   0  0  2  0  0  0  0  0  0  0  0  0
   16.3775    0.8105   -5.9799 C   0  0  0  0  0  0  0  0  0  0  0  0
   15.6530    1.4265   -5.2097 O   0  0  0  0  0  0  0  0  0  0  0  0
   17.5922    1.2872   -6.4411 N   0  0  0  0  0  0  0  0  0  0  0  0
   18.1647    2.5519   -5.9874 C   0  0  1  0  0  0  0  0  0  0  0  0
   18.5369    2.4900   -4.5018 C   0  0  0  0  0  0  0  0  0  0  0  0
   19.3923    2.9619   -6.7809 C   0  0  0  0  0  0  0  0  0  0  0  0
   20.3727    2.0431   -7.1321 C   0  0  0  0  0  0  0  0  0  0  0  0
   21.5450    2.4399   -7.7404 C   0  0  0  0  0  0  0  0  0  0  0  0
   21.7906    3.7704   -8.0550 C   0  0  0  0  0  0  0  0  0  0  0  0
   23.0411    4.1642   -8.7074 C   0  0  0  0  0  0  0  0  0  0  0  0
   23.2995    5.0557   -9.7448 C   0  0  0  0  0  0  0  0  0  0  0  0
   22.3229    5.8747  -10.5007 C   0  0  0  0  0  0  0  0  0  0  0  0
   24.6258    5.1577  -10.1172 N   0  0  0  0  0  0  0  0  0  0  0  0
   25.3604    4.3584   -9.3794 C   0  0  0  0  0  0  0  0  0  0  0  0
   24.5312    3.4628   -8.1918 S   0  0  0  0  0  0  0  0  0  0  0  0
   20.7995    4.6931   -7.7306 C   0  0  0  0  0  0  0  0  0  0  0  0
   19.6264    4.2967   -7.1029 C   0  0  0  0  0  0  0  0  0  0  0  0
   14.7649   -0.4997   -7.4011 C   0  0  0  0  0  0  0  0  0  0  0  0
   13.6175   -0.6669   -6.4157 C   0  0  1  0  0  0  0  0  0  0  0  0
   12.4944   -1.3098   -7.0127 O   0  0  0  0  0  0  0  0  0  0  0  0
   14.1943   -1.5541   -5.3258 C   0  0  0  0  0  0  0  0  0  0  0  0
   19.0390   -5.9713   -5.2381 H   0  0  0  0  0  0  0  0  0  0  0  0
   18.0335   -7.1849   -6.0516 H   0  0  0  0  0  0  0  0  0  0  0  0
   18.2337   -7.2500   -4.2824 H   0  0  0  0  0  0  0  0  0  0  0  0
   18.1147   -4.3130   -4.0800 H   0  0  0  0  0  0  0  0  0  0  0  0
   15.2019   -3.8671   -4.4684 H   0  0  0  0  0  0  0  0  0  0  0  0
   15.2071   -4.5632   -0.8518 H   0  0  0  0  0  0  0  0  0  0  0  0
   16.2319   -5.4272   -1.9993 H   0  0  0  0  0  0  0  0  0  0  0  0
   14.5662   -5.0471   -2.4198 H   0  0  0  0  0  0  0  0  0  0  0  0
   15.0701   -1.3039   -2.5335 H   0  0  0  0  0  0  0  0  0  0  0  0
   14.6217   -2.2318   -1.1118 H   0  0  0  0  0  0  0  0  0  0  0  0
   13.8637   -2.5657   -2.6890 H   0  0  0  0  0  0  0  0  0  0  0  0
   17.0146   -2.7690   -0.6974 H   0  0  0  0  0  0  0  0  0  0  0  0
   17.5133   -1.8749   -2.1320 H   0  0  0  0  0  0  0  0  0  0  0  0
   18.0026   -3.5525   -1.9159 H   0  0  0  0  0  0  0  0  0  0  0  0
   16.8560   -0.9772   -7.1007 H   0  0  0  0  0  0  0  0  0  0  0  0
   18.1099    0.7248   -7.1090 H   0  0  0  0  0  0  0  0  0  0  0  0
   17.3819    3.3073   -6.1225 H   0  0  0  0  0  0  0  0  0  0  0  0
   17.6645    2.2978   -3.8716 H   0  0  0  0  0  0  0  0  0  0  0  0
   18.9854    3.4291   -4.1627 H   0  0  0  0  0  0  0  0  0  0  0  0
   19.2570    1.6898   -4.3014 H   0  0  0  0  0  0  0  0  0  0  0  0
   20.2398    0.9897   -6.9197 H   0  0  0  0  0  0  0  0  0  0  0  0
   22.2706    1.6724   -7.9779 H   0  0  0  0  0  0  0  0  0  0  0  0
   22.7627    6.2481  -11.4301 H   0  0  0  0  0  0  0  0  0  0  0  0
   22.0043    6.7392   -9.9119 H   0  0  0  0  0  0  0  0  0  0  0  0
   21.4401    5.2913  -10.7713 H   0  0  0  0  0  0  0  0  0  0  0  0
   26.4301    4.2711   -9.5067 H   0  0  0  0  0  0  0  0  0  0  0  0
   20.9404    5.7481   -7.9411 H   0  0  0  0  0  0  0  0  0  0  0  0
   18.8935    5.0548   -6.8422 H   0  0  0  0  0  0  0  0  0  0  0  0
   14.6815    0.4285   -7.9764 H   0  0  0  0  0  0  0  0  0  0  0  0
   14.7663   -1.3281   -8.1176 H   0  0  0  0  0  0  0  0  0  0  0  0
   13.2924    0.2960   -6.0059 H   0  0  0  0  0  0  0  0  0  0  0  0
   12.1329   -0.7196   -7.6987 H   0  0  0  0  0  0  0  0  0  0  0  0
   13.8299   -2.5817   -5.3662 H   0  0  0  0  0  0  0  0  0  0  0  0
   13.9242   -1.1399   -4.3545 H   0  0  0  0  0  0  0  0  0  0  0  0
  1 35  1  0  0  0  0
  1 36  1  0  0  0  0
  1 37  1  0  0  0  0
  1  2  1  0  0  0  0
  2  3  2  0  0  0  0
  2  4  1  0  0  0  0
  4 38  1  0  0  0  0
  5  4  1  0  0  0  0
  5 39  1  0  0  0  0
  5  6  1  0  0  0  0
  5 10  1  0  0  0  0
  6  7  1  0  0  0  0
  6  8  1  0  0  0  0
  6  9  1  0  0  0  0
  7 40  1  0  0  0  0
  7 41  1  0  0  0  0
  7 42  1  0  0  0  0
  8 43  1  0  0  0  0
  8 44  1  0  0  0  0
  8 45  1  0  0  0  0
  9 46  1  0  0  0  0
  9 47  1  0  0  0  0
  9 48  1  0  0  0  0
 10 11  2  0  0  0  0
 10 12  1  0  0  0  0
 12 34  1  0  0  0  0
 13 12  1  0  0  0  0
 13 31  1  0  0  0  0
 13 49  1  0  0  0  0
 13 14  1  0  0  0  0
 14 15  2  0  0  0  0
 14 16  1  0  0  0  0
 16 50  1  0  0  0  0
 17 16  1  0  0  0  0
 17 51  1  0  0  0  0
 17 18  1  0  0  0  0
 17 19  1  0  0  0  0
 18 52  1  0  0  0  0
 18 53  1  0  0  0  0
 18 54  1  0  0  0  0
 19 20  1  0  0  0  0
 19 30  2  0  0  0  0
 20 55  1  0  0  0  0
 20 21  2  0  0  0  0
 21 56  1  0  0  0  0
 21 22  1  0  0  0  0
 22 29  2  0  0  0  0
 22 23  1  0  0  0  0
 23 24  2  0  0  0  0
 23 28  1  0  0  0  0
 24 25  1  0  0  0  0
 24 26  1  0  0  0  0
 25 57  1  0  0  0  0
 25 58  1  0  0  0  0
 25 59  1  0  0  0  0
 26 27  2  0  0  0  0
 27 60  1  0  0  0  0
 27 28  1  0  0  0  0
 29 61  1  0  0  0  0
 29 30  1  0  0  0  0
 30 62  1  0  0  0  0
 32 31  1  0  0  0  0
 31 63  1  0  0  0  0
 31 64  1  0  0  0  0
 32 34  1  0  0  0  0
 32 65  1  0  0  0  0
 32 33  1  0  0  0  0
 33 66  1  0  0  0  0
 34 67  1  0  0  0  0
 34 68  1  0  0  0  0
M  ZZC   1 c1
M  ZZC   2 c2
M  ZZC   3 o1
M  ZZC   4 n1
M  ZZC   5 c3
M  ZZC   6 c4
M  ZZC   7 c5
M  ZZC   8 c6
M  ZZC   9 c7
M  ZZC  10 c8
M  ZZC  11 o2
M  ZZC  12 n2
M  ZZC  13 c9
M  ZZC  14 c10
M  ZZC  15 o3
M  ZZC  16 n3
M  ZZC  17 c11
M  ZZC  18 c12
M  ZZC  19 c13
M  ZZC  20 c14
M  ZZC  21 c15
M  ZZC  22 c16
M  ZZC  23 c17
M  ZZC  24 c18
M  ZZC  25 c19
M  ZZC  26 n4
M  ZZC  27 c20
M  ZZC  28 s1
M  ZZC  29 c21
M  ZZC  30 c22
M  ZZC  31 c23
M  ZZC  32 c24
M  ZZC  33 o4
M  ZZC  34 c25
M  ZZC  35 h11
M  ZZC  36 h12
M  ZZC  37 h13
M  ZZC  38 h01
M  ZZC  39 h31
M  ZZC  40 h51
M  ZZC  41 h52
M  ZZC  42 h53
M  ZZC  43 h61
M  ZZC  44 h62
M  ZZC  45 h63
M  ZZC  46 h71
M  ZZC  47 h72
M  ZZC  48 h73
M  ZZC  49 h91
M  ZZC  50 h02
M  ZZC  51 h111
M  ZZC  52 h121
M  ZZC  53 h122
M  ZZC  54 h123
M  ZZC  55 h141
M  ZZC  56 h151
M  ZZC  57 h191
M  ZZC  58 h192
M  ZZC  59 h193
M  ZZC  60 h201
M  ZZC  61 h211
M  ZZC  62 h221
M  ZZC  63 h231
M  ZZC  64 h232
M  ZZC  65 h241
M  ZZC  66 h41
M  ZZC  67 h251
M  ZZC  68 h252
M  ZZM   1 1
M  ZZI   1 111
M  ZZM   2 3
M  ZZI   2 121
M  ZZM   3 7
M  ZZI   3 81
M  ZZM   4 10
M  ZZI   4 211
M  ZZM   5 1
M  ZZI   5 113
M  ZZM   6 1
M  ZZI   6 110
M  ZZM   7 1
M  ZZI   7 111
M  ZZM   8 1
M  ZZI   8 111
M  ZZM   9 1
M  ZZI   9 111
M  ZZM  10 3
M  ZZI  10 121
M  ZZM  11 7
M  ZZI  11 81
M  ZZM  12 10
M  ZZI  12 192
M  ZZM  13 1
M  ZZI  13 113
M  ZZM  14 3
M  ZZI  14 121
M  ZZM  15 7
M  ZZI  15 81
M  ZZM  16 10
M  ZZI  16 211
M  ZZM  17 1
M  ZZI  17 113
M  ZZM  18 1
M  ZZI  18 111
M  ZZM  19 37
M  ZZI  19 124
M  ZZM  20 37
M  ZZI  20 125
M  ZZM  21 37
M  ZZI  21 125
M  ZZM  22 37
M  ZZI  22 124
M  ZZM  23 63
M  ZZI  23 104
M  ZZM  24 64
M  ZZI  24 105
M  ZZM  25 1
M  ZZI  25 111
M  ZZM  26 66
M  ZZI  26 222
M  ZZM  27 63
M  ZZI  27 104
M  ZZM  28 44
M  ZZI  28 248
M  ZZM  29 37
M  ZZI  29 125
M  ZZM  30 37
M  ZZI  30 125
M  ZZM  31 1
M  ZZI  31 112
M  ZZM  32 1
M  ZZI  32 113
M  ZZM  33 6
M  ZZI  33 60
M  ZZM  34 1
M  ZZI  34 112
M  ZZM  35 5
M  ZZI  35 1
M  ZZM  36 5
M  ZZI  36 1
M  ZZM  37 5
M  ZZI  37 1
M  ZZM  38 28
M  ZZI  38 11
M  ZZM  39 5
M  ZZI  39 1
M  ZZM  40 5
M  ZZI  40 1
M  ZZM  41 5
M  ZZI  41 1
M  ZZM  42 5
M  ZZI  42 1
M  ZZM  43 5
M  ZZI  43 1
M  ZZM  44 5
M  ZZI  44 1
M  ZZM  45 5
M  ZZI  45 1
M  ZZM  46 5
M  ZZI  46 1
M  ZZM  47 5
M  ZZI  47 1
M  ZZM  48 5
M  ZZI  48 1
M  ZZM  49 5
M  ZZI  49 1
M  ZZM  50 28
M  ZZI  50 11
M  ZZM  51 5
M  ZZI  51 1
M  ZZM  52 5
M  ZZI  52 1
M  ZZM  53 5
M  ZZI  53 1
M  ZZM  54 5
M  ZZI  54 1
M  ZZM  55 5
M  ZZI  55 1
M  ZZM  56 5
M  ZZI  56 1
M  ZZM  57 5
M  ZZI  57 1
M  ZZM  58 5
M  ZZI  58 1
M  ZZM  59 5
M  ZZI  59 1
M  ZZM  60 5
M  ZZI  60 1
M  ZZM  61 5
M  ZZI  61 1
M  ZZM  62 5
M  ZZI  62 1
M  ZZM  63 5
M  ZZI  63 1
M  ZZM  64 5
M  ZZI  64 1
M  ZZM  65 5
M  ZZI  65 1
M  ZZM  66 21
M  ZZI  66 20
M  ZZM  67 5
M  ZZI  67 1
M  ZZM  68 5
M  ZZI  68 1
M  END
> <IX>
1

> <NAME>
VHL_5T8E_47.pdb

> <Score>
-10.50564

> <Natom>
68

> <Nflex>
8

> <Hbond>
-5.037272

> <Hphob>
-6.35843

> <VwInt>
-27.419596

> <Dsolv>
17.168094

> <SolEl>
16.008634

> <Eintl>
9.461056

> <RecConf>
ND

> <projPath>
VHL_maps/

> <NAME_>
VHL_5T8E_47.pdb

$$$$
