VHL_5EU1_25.pdb
  MOLSOFT 04032206433D

 70 73  0  0  1  0  0  0  0  0999 V2000
   19.3273   -5.1790   -6.0831 F   0  0  0  0  0  0  0  0  0  0  0  0
   18.2804   -5.9957   -5.6749 C   0  0  0  0  0  0  0  0  0  0  0  0
   17.0715   -5.3078   -5.1535 C   0  0  0  0  0  0  0  0  0  0  0  0
   15.9781   -5.8421   -5.2591 O   0  0  0  0  0  0  0  0  0  0  0  0
   17.2935   -4.0713   -4.5730 N   0  0  0  0  0  0  0  0  0  0  0  0
   16.1982   -3.2105   -4.1064 C   0  0  1  0  0  0  0  0  0  0  0  0
   15.7409   -3.4975   -2.6373 C   0  0  0  0  0  0  0  0  0  0  0  0
   15.2719   -4.9510   -2.4783 C   0  0  0  0  0  0  0  0  0  0  0  0
   14.5413   -2.6003   -2.3005 C   0  0  0  0  0  0  0  0  0  0  0  0
   16.8432   -3.2535   -1.5926 C   0  0  0  0  0  0  0  0  0  0  0  0
   16.6089   -1.7380   -4.3288 C   0  0  0  0  0  0  0  0  0  0  0  0
   17.3292   -1.1428   -3.5395 O   0  0  0  0  0  0  0  0  0  0  0  0
   16.1577   -1.1106   -5.4910 N   0  0  0  0  0  0  0  0  0  0  0  0
   16.2512    0.3313   -5.6652 C   0  0  2  0  0  0  0  0  0  0  0  0
   14.9999    0.9895   -5.0669 C   0  0  0  0  0  0  0  0  0  0  0  0
   13.8654    0.6357   -5.3614 O   0  0  0  0  0  0  0  0  0  0  0  0
   15.2726    2.0058   -4.1677 N   0  0  0  0  0  0  0  0  0  0  0  0
   14.2247    2.7144   -3.4559 C   0  0  0  0  0  0  0  0  0  0  0  0
   14.0254    2.1472   -2.0735 C   0  0  0  0  0  0  0  0  0  0  0  0
   14.5862    2.7332   -0.9445 C   0  0  0  0  0  0  0  0  0  0  0  0
   15.3042    3.9067   -1.0922 O   0  0  0  0  0  0  0  0  0  0  0  0
   14.4575    2.1627    0.3147 C   0  0  0  0  0  0  0  0  0  0  0  0
   13.7612    0.9693    0.4771 C   0  0  0  0  0  0  0  0  0  0  0  0
   13.6689    0.3339    1.7874 C   0  0  0  0  0  0  0  0  0  0  0  0
   13.2983    0.8454    3.0264 C   0  0  0  0  0  0  0  0  0  0  0  0
   12.8299    2.2191    3.3264 C   0  0  0  0  0  0  0  0  0  0  0  0
   13.3663   -0.0522    4.0754 N   0  0  0  0  0  0  0  0  0  0  0  0
   13.7531   -1.2261    3.6307 C   0  0  0  0  0  0  0  0  0  0  0  0
   14.0889   -1.3279    1.9611 S   0  0  0  0  0  0  0  0  0  0  0  0
   13.1789    0.3897   -0.6464 C   0  0  0  0  0  0  0  0  0  0  0  0
   13.3127    0.9675   -1.8980 C   0  0  0  0  0  0  0  0  0  0  0  0
   16.3002    0.5339   -7.1692 C   0  0  0  0  0  0  0  0  0  0  0  0
   15.5792   -0.6751   -7.7582 C   0  0  1  0  0  0  0  0  0  0  0  0
   16.2454   -1.1179   -8.9464 O   0  0  0  0  0  0  0  0  0  0  0  0
   15.6053   -1.7471   -6.6692 C   0  0  0  0  0  0  0  0  0  0  0  0
   18.1177   -7.2341   -6.5145 C   0  0  0  0  0  0  0  0  0  0  0  0
   18.6843   -7.3438   -5.1415 C   0  0  0  0  0  0  0  0  0  0  0  0
   18.2498   -3.7348   -4.5127 H   0  0  0  0  0  0  0  0  0  0  0  0
   15.3387   -3.4175   -4.7461 H   0  0  0  0  0  0  0  0  0  0  0  0
   14.8495   -5.1256   -1.4860 H   0  0  0  0  0  0  0  0  0  0  0  0
   16.0923   -5.6634   -2.5982 H   0  0  0  0  0  0  0  0  0  0  0  0
   14.4915   -5.2016   -3.2007 H   0  0  0  0  0  0  0  0  0  0  0  0
   14.8084   -1.5397   -2.3442 H   0  0  0  0  0  0  0  0  0  0  0  0
   14.1611   -2.8029   -1.2939 H   0  0  0  0  0  0  0  0  0  0  0  0
   13.7159   -2.7519   -2.9996 H   0  0  0  0  0  0  0  0  0  0  0  0
   16.5601   -3.6546   -0.6141 H   0  0  0  0  0  0  0  0  0  0  0  0
   17.0477   -2.1915   -1.4374 H   0  0  0  0  0  0  0  0  0  0  0  0
   17.7808   -3.7301   -1.8804 H   0  0  0  0  0  0  0  0  0  0  0  0
   17.1520    0.7213   -5.1774 H   0  0  0  0  0  0  0  0  0  0  0  0
   16.2318    2.2271   -3.9239 H   0  0  0  0  0  0  0  0  0  0  0  0
   14.5059    3.7712   -3.4223 H   0  0  0  0  0  0  0  0  0  0  0  0
   13.2886    2.6604   -4.0200 H   0  0  0  0  0  0  0  0  0  0  0  0
   15.6235    4.1793   -0.2147 H   0  0  0  0  0  0  0  0  0  0  0  0
   14.9296    2.6344    1.1704 H   0  0  0  0  0  0  0  0  0  0  0  0
   13.6701    2.9183    3.3542 H   0  0  0  0  0  0  0  0  0  0  0  0
   12.3278    2.2575    4.2975 H   0  0  0  0  0  0  0  0  0  0  0  0
   12.1127    2.5631    2.5758 H   0  0  0  0  0  0  0  0  0  0  0  0
   13.8592   -2.0833    4.2796 H   0  0  0  0  0  0  0  0  0  0  0  0
   12.6209   -0.5384   -0.5610 H   0  0  0  0  0  0  0  0  0  0  0  0
   12.8802    0.4685   -2.7599 H   0  0  0  0  0  0  0  0  0  0  0  0
   15.8374    1.4729   -7.4907 H   0  0  0  0  0  0  0  0  0  0  0  0
   17.3421    0.5692   -7.5044 H   0  0  0  0  0  0  0  0  0  0  0  0
   14.5468   -0.4251   -8.0186 H   0  0  0  0  0  0  0  0  0  0  0  0
   17.2034   -1.0646   -8.7703 H   0  0  0  0  0  0  0  0  0  0  0  0
   16.1962   -2.6289   -6.9327 H   0  0  0  0  0  0  0  0  0  0  0  0
   14.5891   -2.0692   -6.4269 H   0  0  0  0  0  0  0  0  0  0  0  0
   17.1317   -7.6561   -6.6724 H   0  0  0  0  0  0  0  0  0  0  0  0
   18.8045   -7.3446   -7.3384 H   0  0  0  0  0  0  0  0  0  0  0  0
   19.7394   -7.5762   -5.0824 H   0  0  0  0  0  0  0  0  0  0  0  0
   18.0630   -7.8070   -4.3846 H   0  0  0  0  0  0  0  0  0  0  0  0
  2  1  1  0  0  0  0
  2 36  1  0  0  0  0
  2  3  1  0  0  0  0
  2 37  1  0  0  0  0
  3  4  2  0  0  0  0
  3  5  1  0  0  0  0
  5 38  1  0  0  0  0
  6  5  1  0  0  0  0
  6 39  1  0  0  0  0
  6  7  1  0  0  0  0
  6 11  1  0  0  0  0
  7  8  1  0  0  0  0
  7  9  1  0  0  0  0
  7 10  1  0  0  0  0
  8 40  1  0  0  0  0
  8 41  1  0  0  0  0
  8 42  1  0  0  0  0
  9 43  1  0  0  0  0
  9 44  1  0  0  0  0
  9 45  1  0  0  0  0
 10 46  1  0  0  0  0
 10 47  1  0  0  0  0
 10 48  1  0  0  0  0
 11 12  2  0  0  0  0
 11 13  1  0  0  0  0
 13 35  1  0  0  0  0
 14 13  1  0  0  0  0
 14 32  1  0  0  0  0
 14 49  1  0  0  0  0
 14 15  1  0  0  0  0
 15 16  2  0  0  0  0
 15 17  1  0  0  0  0
 17 50  1  0  0  0  0
 17 18  1  0  0  0  0
 18 51  1  0  0  0  0
 18 52  1  0  0  0  0
 18 19  1  0  0  0  0
 19 20  2  0  0  0  0
 19 31  1  0  0  0  0
 20 21  1  0  0  0  0
 20 22  1  0  0  0  0
 21 53  1  0  0  0  0
 22 54  1  0  0  0  0
 22 23  2  0  0  0  0
 23 30  1  0  0  0  0
 23 24  1  0  0  0  0
 24 25  2  0  0  0  0
 24 29  1  0  0  0  0
 25 26  1  0  0  0  0
 25 27  1  0  0  0  0
 26 55  1  0  0  0  0
 26 56  1  0  0  0  0
 26 57  1  0  0  0  0
 27 28  2  0  0  0  0
 28 58  1  0  0  0  0
 28 29  1  0  0  0  0
 30 59  1  0  0  0  0
 30 31  2  0  0  0  0
 31 60  1  0  0  0  0
 33 32  1  0  0  0  0
 32 61  1  0  0  0  0
 32 62  1  0  0  0  0
 33 35  1  0  0  0  0
 33 63  1  0  0  0  0
 33 34  1  0  0  0  0
 34 64  1  0  0  0  0
 35 65  1  0  0  0  0
 35 66  1  0  0  0  0
 36 67  1  0  0  0  0
 36 68  1  0  0  0  0
 36 37  1  0  0  0  0
 37 69  1  0  0  0  0
 37 70  1  0  0  0  0
M  ZZC   1 f1
M  ZZC   2 c1
M  ZZC   3 c2
M  ZZC   4 o1
M  ZZC   5 n1
M  ZZC   6 c3
M  ZZC   7 c4
M  ZZC   8 c5
M  ZZC   9 c6
M  ZZC  10 c7
M  ZZC  11 c8
M  ZZC  12 o2
M  ZZC  13 n2
M  ZZC  14 c9
M  ZZC  15 c10
M  ZZC  16 o3
M  ZZC  17 n3
M  ZZC  18 c11
M  ZZC  19 c12
M  ZZC  20 c13
M  ZZC  21 o4
M  ZZC  22 c14
M  ZZC  23 c15
M  ZZC  24 c16
M  ZZC  25 c17
M  ZZC  26 c18
M  ZZC  27 n4
M  ZZC  28 c19
M  ZZC  29 s1
M  ZZC  30 c20
M  ZZC  31 c21
M  ZZC  32 c22
M  ZZC  33 c23
M  ZZC  34 o5
M  ZZC  35 c24
M  ZZC  36 c25
M  ZZC  37 c26
M  ZZC  38 h11
M  ZZC  39 h31
M  ZZC  40 h51
M  ZZC  41 h52
M  ZZC  42 h53
M  ZZC  43 h61
M  ZZC  44 h62
M  ZZC  45 h63
M  ZZC  46 h71
M  ZZC  47 h72
M  ZZC  48 h73
M  ZZC  49 h91
M  ZZC  50 h01
M  ZZC  51 h111
M  ZZC  52 h112
M  ZZC  53 h41
M  ZZC  54 h141
M  ZZC  55 h181
M  ZZC  56 h182
M  ZZC  57 h183
M  ZZC  58 h191
M  ZZC  59 h201
M  ZZC  60 h211
M  ZZC  61 h221
M  ZZC  62 h222
M  ZZC  63 h231
M  ZZC  64 h02
M  ZZC  65 h241
M  ZZC  66 h242
M  ZZC  67 h251
M  ZZC  68 h252
M  ZZC  69 h261
M  ZZC  70 h262
M  ZZM   1 11
M  ZZI   1 90
M  ZZM   2 22
M  ZZI   2 109
M  ZZM   3 3
M  ZZI   3 121
M  ZZM   4 7
M  ZZI   4 81
M  ZZM   5 10
M  ZZI   5 211
M  ZZM   6 1
M  ZZI   6 113
M  ZZM   7 1
M  ZZI   7 110
M  ZZM   8 1
M  ZZI   8 111
M  ZZM   9 1
M  ZZI   9 111
M  ZZM  10 1
M  ZZI  10 111
M  ZZM  11 3
M  ZZI  11 121
M  ZZM  12 7
M  ZZI  12 81
M  ZZM  13 10
M  ZZI  13 192
M  ZZM  14 1
M  ZZI  14 113
M  ZZM  15 3
M  ZZI  15 121
M  ZZM  16 7
M  ZZI  16 81
M  ZZM  17 10
M  ZZI  17 211
M  ZZM  18 1
M  ZZI  18 112
M  ZZM  19 37
M  ZZI  19 124
M  ZZM  20 37
M  ZZI  20 124
M  ZZM  21 6
M  ZZI  21 62
M  ZZM  22 37
M  ZZI  22 125
M  ZZM  23 37
M  ZZI  23 124
M  ZZM  24 63
M  ZZI  24 104
M  ZZM  25 64
M  ZZI  25 105
M  ZZM  26 1
M  ZZI  26 111
M  ZZM  27 66
M  ZZI  27 222
M  ZZM  28 63
M  ZZI  28 104
M  ZZM  29 44
M  ZZI  29 248
M  ZZM  30 37
M  ZZI  30 125
M  ZZM  31 37
M  ZZI  31 125
M  ZZM  32 1
M  ZZI  32 112
M  ZZM  33 1
M  ZZI  33 113
M  ZZM  34 6
M  ZZI  34 60
M  ZZM  35 1
M  ZZI  35 112
M  ZZM  36 22
M  ZZI  36 109
M  ZZM  37 22
M  ZZI  37 109
M  ZZM  38 28
M  ZZI  38 11
M  ZZM  39 5
M  ZZI  39 1
M  ZZM  40 5
M  ZZI  40 1
M  ZZM  41 5
M  ZZI  41 1
M  ZZM  42 5
M  ZZI  42 1
M  ZZM  43 5
M  ZZI  43 1
M  ZZM  44 5
M  ZZI  44 1
M  ZZM  45 5
M  ZZI  45 1
M  ZZM  46 5
M  ZZI  46 1
M  ZZM  47 5
M  ZZI  47 1
M  ZZM  48 5
M  ZZI  48 1
M  ZZM  49 5
M  ZZI  49 1
M  ZZM  50 28
M  ZZI  50 11
M  ZZM  51 5
M  ZZI  51 1
M  ZZM  52 5
M  ZZI  52 1
M  ZZM  53 29
M  ZZI  53 27
M  ZZM  54 5
M  ZZI  54 1
M  ZZM  55 5
M  ZZI  55 1
M  ZZM  56 5
M  ZZI  56 1
M  ZZM  57 5
M  ZZI  57 1
M  ZZM  58 5
M  ZZI  58 1
M  ZZM  59 5
M  ZZI  59 1
M  ZZM  60 5
M  ZZI  60 1
M  ZZM  61 5
M  ZZI  61 1
M  ZZM  62 5
M  ZZI  62 1
M  ZZM  63 5
M  ZZI  63 1
M  ZZM  64 21
M  ZZI  64 20
M  ZZM  65 5
M  ZZI  65 1
M  ZZM  66 5
M  ZZI  66 1
M  ZZM  67 5
M  ZZI  67 1
M  ZZM  68 5
M  ZZI  68 1
M  ZZM  69 5
M  ZZI  69 1
M  ZZM  70 5
M  ZZI  70 1
M  END
> <IX>
1

> <NAME>
VHL_5EU1_25.pdb

> <Score>
-20.132937

> <Natom>
70

> <Nflex>
9

> <Hbond>
-5.506322

> <Hphob>
-7.085063

> <VwInt>
-29.863128

> <Dsolv>
15.492997

> <SolEl>
9.514784

> <Eintl>
8.514454

> <RecConf>
ND

> <projPath>
VHL_maps/

> <NAME_>
VHL_5EU1_25.pdb

$$$$
