VHL_4CI3_4.pdb
  MOLSOFT 04032206383D

 65 67  0  0  1  0  0  0  0  0999 V2000
   15.8005   -6.0974   -5.3547 O   0  0  0  0  0  0  0  0  0  0  0  0
   16.8881   -5.7542   -4.9250 C   0  0  0  0  0  0  0  0  0  0  0  0
   17.1348   -4.5824   -4.2359 N   0  0  0  0  0  0  0  0  0  0  0  0
   16.1348   -3.5330   -3.9756 C   0  0  1  0  0  0  0  0  0  0  0  0
   15.9214   -3.2975   -2.4497 C   0  0  0  0  0  0  0  0  0  0  0  0
   14.8195   -2.2712   -2.1602 C   0  0  0  0  0  0  0  0  0  0  0  0
   15.4712   -4.6188   -1.8166 C   0  0  0  0  0  0  0  0  0  0  0  0
   17.1986   -2.8145   -1.7470 C   0  0  0  0  0  0  0  0  0  0  0  0
   16.6255   -2.3127   -4.7835 C   0  0  0  0  0  0  0  0  0  0  0  0
   17.8204   -2.0482   -4.8524 O   0  0  0  0  0  0  0  0  0  0  0  0
   15.6690   -1.5507   -5.4619 N   0  0  0  0  0  0  0  0  0  0  0  0
   16.0572   -0.6438   -6.5322 C   0  0  2  0  0  0  0  0  0  0  0  0
   16.4374    0.7508   -6.0273 C   0  0  0  0  0  0  0  0  0  0  0  0
   15.9086    1.2760   -5.0568 O   0  0  0  0  0  0  0  0  0  0  0  0
   17.3778    1.3796   -6.8221 N   0  0  0  0  0  0  0  0  0  0  0  0
   17.8265    2.7365   -6.5561 C   0  0  0  0  0  0  0  0  0  0  0  0
   19.2372    3.0170   -7.0170 C   0  0  0  0  0  0  0  0  0  0  0  0
   20.1815    2.0047   -7.1291 C   0  0  0  0  0  0  0  0  0  0  0  0
   21.4818    2.2810   -7.4973 C   0  0  0  0  0  0  0  0  0  0  0  0
   21.8932    3.5781   -7.7579 C   0  0  0  0  0  0  0  0  0  0  0  0
   23.2780    3.8393   -8.1162 C   0  0  0  0  0  0  0  0  0  0  0  0
   24.3458    4.2578   -7.3353 C   0  0  0  0  0  0  0  0  0  0  0  0
   24.3151    4.5869   -5.8923 C   0  0  0  0  0  0  0  0  0  0  0  0
   25.5553    4.3403   -7.9960 N   0  0  0  0  0  0  0  0  0  0  0  0
   25.3935    4.0092   -9.2574 C   0  0  0  0  0  0  0  0  0  0  0  0
   23.8082    3.5924   -9.7318 S   0  0  0  0  0  0  0  0  0  0  0  0
   20.9601    4.6010   -7.6436 C   0  0  0  0  0  0  0  0  0  0  0  0
   19.6505    4.3219   -7.2771 C   0  0  0  0  0  0  0  0  0  0  0  0
   14.8181   -0.5778   -7.4107 C   0  0  0  0  0  0  0  0  0  0  0  0
   13.6684   -0.6969   -6.4213 C   0  0  1  0  0  0  0  0  0  0  0  0
   12.5244   -1.3122   -7.0074 O   0  0  0  0  0  0  0  0  0  0  0  0
   14.2228   -1.5871   -5.3223 C   0  0  0  0  0  0  0  0  0  0  0  0
   18.0996   -6.6291   -5.0937 C   0  0  0  0  0  0  0  0  0  0  0  0
   18.0966   -4.3813   -3.9893 H   0  0  0  0  0  0  0  0  0  0  0  0
   15.1942   -3.8841   -4.4021 H   0  0  0  0  0  0  0  0  0  0  0  0
   13.8704   -2.5642   -2.6193 H   0  0  0  0  0  0  0  0  0  0  0  0
   15.0933   -1.2729   -2.5127 H   0  0  0  0  0  0  0  0  0  0  0  0
   14.6324   -2.1790   -1.0852 H   0  0  0  0  0  0  0  0  0  0  0  0
   16.2505   -5.3801   -1.8788 H   0  0  0  0  0  0  0  0  0  0  0  0
   14.5837   -5.0222   -2.3144 H   0  0  0  0  0  0  0  0  0  0  0  0
   15.2199   -4.4833   -0.7611 H   0  0  0  0  0  0  0  0  0  0  0  0
   17.5400   -1.8589   -2.1418 H   0  0  0  0  0  0  0  0  0  0  0  0
   18.0208   -3.5245   -1.8828 H   0  0  0  0  0  0  0  0  0  0  0  0
   17.0505   -2.6935   -0.6696 H   0  0  0  0  0  0  0  0  0  0  0  0
   16.9046   -1.0673   -7.0814 H   0  0  0  0  0  0  0  0  0  0  0  0
   17.7753    0.8767   -7.6106 H   0  0  0  0  0  0  0  0  0  0  0  0
   17.1253    3.3976   -7.0771 H   0  0  0  0  0  0  0  0  0  0  0  0
   17.7486    2.9397   -5.4828 H   0  0  0  0  0  0  0  0  0  0  0  0
   19.9135    0.9742   -6.9282 H   0  0  0  0  0  0  0  0  0  0  0  0
   22.1814    1.4587   -7.5819 H   0  0  0  0  0  0  0  0  0  0  0  0
   25.2823    4.9714   -5.5558 H   0  0  0  0  0  0  0  0  0  0  0  0
   24.0872    3.6980   -5.2994 H   0  0  0  0  0  0  0  0  0  0  0  0
   23.5597    5.3488   -5.6801 H   0  0  0  0  0  0  0  0  0  0  0  0
   26.2119    4.0020   -9.9631 H   0  0  0  0  0  0  0  0  0  0  0  0
   21.2493    5.6295   -7.8385 H   0  0  0  0  0  0  0  0  0  0  0  0
   18.9457    5.1436   -7.1881 H   0  0  0  0  0  0  0  0  0  0  0  0
   14.7496    0.3350   -8.0118 H   0  0  0  0  0  0  0  0  0  0  0  0
   14.8061   -1.4259   -8.1040 H   0  0  0  0  0  0  0  0  0  0  0  0
   13.3782    0.2818   -6.0222 H   0  0  0  0  0  0  0  0  0  0  0  0
   12.1732   -0.7156   -7.6930 H   0  0  0  0  0  0  0  0  0  0  0  0
   13.8484   -2.6110   -5.3651 H   0  0  0  0  0  0  0  0  0  0  0  0
   13.9445   -1.1703   -4.3547 H   0  0  0  0  0  0  0  0  0  0  0  0
   17.9830   -7.2420   -5.9926 H   0  0  0  0  0  0  0  0  0  0  0  0
   18.1896   -7.2845   -4.2242 H   0  0  0  0  0  0  0  0  0  0  0  0
   19.0082   -6.0292   -5.2014 H   0  0  0  0  0  0  0  0  0  0  0  0
  1  2  2  0  0  0  0
  2  3  1  0  0  0  0
  2 33  1  0  0  0  0
  4  3  1  0  0  0  0
  3 34  1  0  0  0  0
  4  5  1  0  0  0  0
  4 35  1  0  0  0  0
  4  9  1  0  0  0  0
  5  6  1  0  0  0  0
  5  7  1  0  0  0  0
  5  8  1  0  0  0  0
  6 36  1  0  0  0  0
  6 37  1  0  0  0  0
  6 38  1  0  0  0  0
  7 39  1  0  0  0  0
  7 40  1  0  0  0  0
  7 41  1  0  0  0  0
  8 42  1  0  0  0  0
  8 43  1  0  0  0  0
  8 44  1  0  0  0  0
  9 10  2  0  0  0  0
  9 11  1  0  0  0  0
 11 32  1  0  0  0  0
 12 11  1  0  0  0  0
 12 29  1  0  0  0  0
 12 45  1  0  0  0  0
 12 13  1  0  0  0  0
 13 14  2  0  0  0  0
 13 15  1  0  0  0  0
 15 46  1  0  0  0  0
 15 16  1  0  0  0  0
 16 47  1  0  0  0  0
 16 48  1  0  0  0  0
 16 17  1  0  0  0  0
 17 18  1  0  0  0  0
 17 28  2  0  0  0  0
 18 49  1  0  0  0  0
 18 19  2  0  0  0  0
 19 50  1  0  0  0  0
 19 20  1  0  0  0  0
 20 27  2  0  0  0  0
 20 21  1  0  0  0  0
 21 22  2  0  0  0  0
 21 26  1  0  0  0  0
 22 23  1  0  0  0  0
 22 24  1  0  0  0  0
 23 51  1  0  0  0  0
 23 52  1  0  0  0  0
 23 53  1  0  0  0  0
 24 25  2  0  0  0  0
 25 54  1  0  0  0  0
 25 26  1  0  0  0  0
 27 55  1  0  0  0  0
 27 28  1  0  0  0  0
 28 56  1  0  0  0  0
 30 29  1  0  0  0  0
 29 57  1  0  0  0  0
 29 58  1  0  0  0  0
 30 32  1  0  0  0  0
 30 59  1  0  0  0  0
 30 31  1  0  0  0  0
 31 60  1  0  0  0  0
 32 61  1  0  0  0  0
 32 62  1  0  0  0  0
 33 63  1  0  0  0  0
 33 64  1  0  0  0  0
 33 65  1  0  0  0  0
M  ZZC   1 o1
M  ZZC   2 c1
M  ZZC   3 n1
M  ZZC   4 c2
M  ZZC   5 c3
M  ZZC   6 c4
M  ZZC   7 c5
M  ZZC   8 c6
M  ZZC   9 c7
M  ZZC  10 o2
M  ZZC  11 n2
M  ZZC  12 c8
M  ZZC  13 c9
M  ZZC  14 o3
M  ZZC  15 n3
M  ZZC  16 c10
M  ZZC  17 c11
M  ZZC  18 c12
M  ZZC  19 c13
M  ZZC  20 c14
M  ZZC  21 c15
M  ZZC  22 c16
M  ZZC  23 c17
M  ZZC  24 n4
M  ZZC  25 c18
M  ZZC  26 s1
M  ZZC  27 c19
M  ZZC  28 c20
M  ZZC  29 c21
M  ZZC  30 c22
M  ZZC  31 o4
M  ZZC  32 c23
M  ZZC  33 c24
M  ZZC  34 h11
M  ZZC  35 h21
M  ZZC  36 h41
M  ZZC  37 h42
M  ZZC  38 h43
M  ZZC  39 h51
M  ZZC  40 h52
M  ZZC  41 h53
M  ZZC  42 h61
M  ZZC  43 h62
M  ZZC  44 h63
M  ZZC  45 h81
M  ZZC  46 h31
M  ZZC  47 h101
M  ZZC  48 h102
M  ZZC  49 h121
M  ZZC  50 h131
M  ZZC  51 h171
M  ZZC  52 h172
M  ZZC  53 h173
M  ZZC  54 h181
M  ZZC  55 h191
M  ZZC  56 h201
M  ZZC  57 h211
M  ZZC  58 h212
M  ZZC  59 h221
M  ZZC  60 h01
M  ZZC  61 h231
M  ZZC  62 h232
M  ZZC  63 h241
M  ZZC  64 h242
M  ZZC  65 h243
M  ZZM   1 7
M  ZZI   1 81
M  ZZM   2 3
M  ZZI   2 121
M  ZZM   3 10
M  ZZI   3 211
M  ZZM   4 1
M  ZZI   4 113
M  ZZM   5 1
M  ZZI   5 110
M  ZZM   6 1
M  ZZI   6 111
M  ZZM   7 1
M  ZZI   7 111
M  ZZM   8 1
M  ZZI   8 111
M  ZZM   9 3
M  ZZI   9 121
M  ZZM  10 7
M  ZZI  10 81
M  ZZM  11 10
M  ZZI  11 192
M  ZZM  12 1
M  ZZI  12 113
M  ZZM  13 3
M  ZZI  13 121
M  ZZM  14 7
M  ZZI  14 81
M  ZZM  15 10
M  ZZI  15 211
M  ZZM  16 1
M  ZZI  16 112
M  ZZM  17 37
M  ZZI  17 124
M  ZZM  18 37
M  ZZI  18 125
M  ZZM  19 37
M  ZZI  19 125
M  ZZM  20 37
M  ZZI  20 124
M  ZZM  21 63
M  ZZI  21 104
M  ZZM  22 64
M  ZZI  22 105
M  ZZM  23 1
M  ZZI  23 111
M  ZZM  24 66
M  ZZI  24 222
M  ZZM  25 63
M  ZZI  25 104
M  ZZM  26 44
M  ZZI  26 248
M  ZZM  27 37
M  ZZI  27 125
M  ZZM  28 37
M  ZZI  28 125
M  ZZM  29 1
M  ZZI  29 112
M  ZZM  30 1
M  ZZI  30 113
M  ZZM  31 6
M  ZZI  31 60
M  ZZM  32 1
M  ZZI  32 112
M  ZZM  33 1
M  ZZI  33 111
M  ZZM  34 28
M  ZZI  34 11
M  ZZM  35 5
M  ZZI  35 1
M  ZZM  36 5
M  ZZI  36 1
M  ZZM  37 5
M  ZZI  37 1
M  ZZM  38 5
M  ZZI  38 1
M  ZZM  39 5
M  ZZI  39 1
M  ZZM  40 5
M  ZZI  40 1
M  ZZM  41 5
M  ZZI  41 1
M  ZZM  42 5
M  ZZI  42 1
M  ZZM  43 5
M  ZZI  43 1
M  ZZM  44 5
M  ZZI  44 1
M  ZZM  45 5
M  ZZI  45 1
M  ZZM  46 28
M  ZZI  46 11
M  ZZM  47 5
M  ZZI  47 1
M  ZZM  48 5
M  ZZI  48 1
M  ZZM  49 5
M  ZZI  49 1
M  ZZM  50 5
M  ZZI  50 1
M  ZZM  51 5
M  ZZI  51 1
M  ZZM  52 5
M  ZZI  52 1
M  ZZM  53 5
M  ZZI  53 1
M  ZZM  54 5
M  ZZI  54 1
M  ZZM  55 5
M  ZZI  55 1
M  ZZM  56 5
M  ZZI  56 1
M  ZZM  57 5
M  ZZI  57 1
M  ZZM  58 5
M  ZZI  58 1
M  ZZM  59 5
M  ZZI  59 1
M  ZZM  60 21
M  ZZI  60 20
M  ZZM  61 5
M  ZZI  61 1
M  ZZM  62 5
M  ZZI  62 1
M  ZZM  63 5
M  ZZI  63 1
M  ZZM  64 5
M  ZZI  64 1
M  ZZM  65 5
M  ZZI  65 1
M  END
> <IX>
1

> <NAME>
VHL_4CI3_4.pdb

> <Score>
-11.676555

> <Natom>
65

> <Nflex>
8

> <Hbond>
-4.962823

> <Hphob>
-6.458013

> <VwInt>
-27.913375

> <Dsolv>
16.919293

> <SolEl>
16.820543

> <Eintl>
7.547671

> <RecConf>
ND

> <projPath>
VHL_maps/

> <NAME_>
VHL_4CI3_4.pdb

$$$$
