VHL_6YOJ_6.pdb
  MOLSOFT 04032206443D

 65 67  0  0  1  0  0  0  0  0999 V2000
   18.0611   -7.0327   -5.1181 C   0  0  0  0  0  0  0  0  0  0  0  0
   16.9157   -6.0610   -5.0651 C   0  0  0  0  0  0  0  0  0  0  0  0
   15.8403   -6.3339   -5.5697 O   0  0  0  0  0  0  0  0  0  0  0  0
   17.2036   -4.9015   -4.3740 N   0  0  0  0  0  0  0  0  0  0  0  0
   16.2653   -3.7829   -4.2043 C   0  0  1  0  0  0  0  0  0  0  0  0
   15.8552   -3.5641   -2.7162 C   0  0  0  0  0  0  0  0  0  0  0  0
   14.7214   -2.5371   -2.5804 C   0  0  0  0  0  0  0  0  0  0  0  0
   17.0269   -3.0784   -1.8506 C   0  0  0  0  0  0  0  0  0  0  0  0
   15.3292   -4.8881   -2.1473 C   0  0  0  0  0  0  0  0  0  0  0  0
   16.9633   -2.5809   -4.8640 C   0  0  0  0  0  0  0  0  0  0  0  0
   18.1669   -2.4009   -4.7364 O   0  0  0  0  0  0  0  0  0  0  0  0
   16.1905   -1.6778   -5.5903 N   0  0  0  0  0  0  0  0  0  0  0  0
   16.8253   -0.5880   -6.3190 C   0  0  2  0  0  0  0  0  0  0  0  0
   17.3620    0.5034   -5.3954 C   0  0  0  0  0  0  0  0  0  0  0  0
   16.9167    0.7051   -4.2734 O   0  0  0  0  0  0  0  0  0  0  0  0
   18.3222    1.2930   -6.0046 N   0  0  0  0  0  0  0  0  0  0  0  0
   18.6883    2.5947   -5.4818 C   0  0  0  0  0  0  0  0  0  0  0  0
   17.6877    3.6044   -5.9769 C   0  0  0  0  0  0  0  0  0  0  0  0
   17.9236    4.3523   -7.1274 C   0  0  0  0  0  0  0  0  0  0  0  0
   16.8997    5.0823   -7.7099 C   0  0  0  0  0  0  0  0  0  0  0  0
   15.6215    5.0412   -7.1661 C   0  0  0  0  0  0  0  0  0  0  0  0
   14.4806    5.5973   -7.8602 C   0  0  0  0  0  0  0  0  0  0  0  0
   13.4484    4.9376   -8.5114 C   0  0  0  0  0  0  0  0  0  0  0  0
   13.3265    3.4768   -8.7377 C   0  0  0  0  0  0  0  0  0  0  0  0
   12.4355    5.7554   -8.9572 N   0  0  0  0  0  0  0  0  0  0  0  0
   12.7466    7.0068   -8.6988 C   0  0  0  0  0  0  0  0  0  0  0  0
   14.2288    7.2906   -7.9083 S   0  0  0  0  0  0  0  0  0  0  0  0
   15.4122    4.3812   -5.9658 C   0  0  0  0  0  0  0  0  0  0  0  0
   16.4403    3.6875   -5.3674 C   0  0  0  0  0  0  0  0  0  0  0  0
   15.7325   -0.0374   -7.2354 C   0  0  0  0  0  0  0  0  0  0  0  0
   14.4545   -0.4027   -6.5028 C   0  0  1  0  0  0  0  0  0  0  0  0
   13.3401   -0.4596   -7.3890 O   0  0  0  0  0  0  0  0  0  0  0  0
   14.7956   -1.7719   -5.9507 C   0  0  0  0  0  0  0  0  0  0  0  0
   19.0185   -6.5075   -5.1874 H   0  0  0  0  0  0  0  0  0  0  0  0
   17.9534   -7.6729   -5.9984 H   0  0  0  0  0  0  0  0  0  0  0  0
   18.0412   -7.6520   -4.2183 H   0  0  0  0  0  0  0  0  0  0  0  0
   18.1559   -4.7678   -4.0514 H   0  0  0  0  0  0  0  0  0  0  0  0
   15.3663   -4.0253   -4.7646 H   0  0  0  0  0  0  0  0  0  0  0  0
   15.0220   -1.5577   -2.9670 H   0  0  0  0  0  0  0  0  0  0  0  0
   14.4408   -2.3883   -1.5334 H   0  0  0  0  0  0  0  0  0  0  0  0
   13.8288   -2.8348   -3.1379 H   0  0  0  0  0  0  0  0  0  0  0  0
   16.7417   -3.0073   -0.7960 H   0  0  0  0  0  0  0  0  0  0  0  0
   17.3764   -2.0870   -2.1550 H   0  0  0  0  0  0  0  0  0  0  0  0
   17.8765   -3.7568   -1.9053 H   0  0  0  0  0  0  0  0  0  0  0  0
   14.9969   -4.7692   -1.1130 H   0  0  0  0  0  0  0  0  0  0  0  0
   16.0946   -5.6664   -2.1566 H   0  0  0  0  0  0  0  0  0  0  0  0
   14.4776   -5.2625   -2.7242 H   0  0  0  0  0  0  0  0  0  0  0  0
   17.6531   -0.9868   -6.9024 H   0  0  0  0  0  0  0  0  0  0  0  0
   18.6876    1.0203   -6.9125 H   0  0  0  0  0  0  0  0  0  0  0  0
   18.7072    2.5679   -4.3866 H   0  0  0  0  0  0  0  0  0  0  0  0
   19.6986    2.8298   -5.8324 H   0  0  0  0  0  0  0  0  0  0  0  0
   18.8955    4.3259   -7.6115 H   0  0  0  0  0  0  0  0  0  0  0  0
   17.0906    5.6356   -8.6252 H   0  0  0  0  0  0  0  0  0  0  0  0
   12.4393    3.2507   -9.3358 H   0  0  0  0  0  0  0  0  0  0  0  0
   13.2289    2.9360   -7.7925 H   0  0  0  0  0  0  0  0  0  0  0  0
   14.2032    3.0843   -9.2598 H   0  0  0  0  0  0  0  0  0  0  0  0
   12.1046    7.8292   -8.9587 H   0  0  0  0  0  0  0  0  0  0  0  0
   14.4257    4.3636   -5.5097 H   0  0  0  0  0  0  0  0  0  0  0  0
   16.2335    3.1395   -4.4530 H   0  0  0  0  0  0  0  0  0  0  0  0
   15.8023    1.0384   -7.4274 H   0  0  0  0  0  0  0  0  0  0  0  0
   15.7622   -0.5338   -8.2129 H   0  0  0  0  0  0  0  0  0  0  0  0
   14.2509    0.3185   -5.7018 H   0  0  0  0  0  0  0  0  0  0  0  0
   12.5325   -0.3309   -6.8608 H   0  0  0  0  0  0  0  0  0  0  0  0
   14.7207   -2.5313   -6.7330 H   0  0  0  0  0  0  0  0  0  0  0  0
   14.1521   -2.0713   -5.1245 H   0  0  0  0  0  0  0  0  0  0  0  0
  1 34  1  0  0  0  0
  1 35  1  0  0  0  0
  1 36  1  0  0  0  0
  1  2  1  0  0  0  0
  2  3  2  0  0  0  0
  2  4  1  0  0  0  0
  4 37  1  0  0  0  0
  5  4  1  0  0  0  0
  5 38  1  0  0  0  0
  5  6  1  0  0  0  0
  5 10  1  0  0  0  0
  6  7  1  0  0  0  0
  6  8  1  0  0  0  0
  6  9  1  0  0  0  0
  7 39  1  0  0  0  0
  7 40  1  0  0  0  0
  7 41  1  0  0  0  0
  8 42  1  0  0  0  0
  8 43  1  0  0  0  0
  8 44  1  0  0  0  0
  9 45  1  0  0  0  0
  9 46  1  0  0  0  0
  9 47  1  0  0  0  0
 10 11  2  0  0  0  0
 10 12  1  0  0  0  0
 12 33  1  0  0  0  0
 13 12  1  0  0  0  0
 13 30  1  0  0  0  0
 13 48  1  0  0  0  0
 13 14  1  0  0  0  0
 14 15  2  0  0  0  0
 14 16  1  0  0  0  0
 16 49  1  0  0  0  0
 16 17  1  0  0  0  0
 17 50  1  0  0  0  0
 17 51  1  0  0  0  0
 17 18  1  0  0  0  0
 18 19  1  0  0  0  0
 18 29  2  0  0  0  0
 19 52  1  0  0  0  0
 19 20  2  0  0  0  0
 20 53  1  0  0  0  0
 20 21  1  0  0  0  0
 21 28  2  0  0  0  0
 21 22  1  0  0  0  0
 22 23  2  0  0  0  0
 22 27  1  0  0  0  0
 23 24  1  0  0  0  0
 23 25  1  0  0  0  0
 24 54  1  0  0  0  0
 24 55  1  0  0  0  0
 24 56  1  0  0  0  0
 25 26  2  0  0  0  0
 26 57  1  0  0  0  0
 26 27  1  0  0  0  0
 28 58  1  0  0  0  0
 28 29  1  0  0  0  0
 29 59  1  0  0  0  0
 31 30  1  0  0  0  0
 30 60  1  0  0  0  0
 30 61  1  0  0  0  0
 31 33  1  0  0  0  0
 31 62  1  0  0  0  0
 31 32  1  0  0  0  0
 32 63  1  0  0  0  0
 33 64  1  0  0  0  0
 33 65  1  0  0  0  0
M  ZZC   1 c1
M  ZZC   2 c2
M  ZZC   3 o1
M  ZZC   4 n1
M  ZZC   5 c3
M  ZZC   6 c4
M  ZZC   7 c5
M  ZZC   8 c6
M  ZZC   9 c7
M  ZZC  10 c8
M  ZZC  11 o2
M  ZZC  12 n2
M  ZZC  13 c9
M  ZZC  14 c10
M  ZZC  15 o3
M  ZZC  16 n3
M  ZZC  17 c11
M  ZZC  18 c12
M  ZZC  19 c13
M  ZZC  20 c14
M  ZZC  21 c15
M  ZZC  22 c16
M  ZZC  23 c17
M  ZZC  24 c18
M  ZZC  25 n4
M  ZZC  26 c19
M  ZZC  27 s1
M  ZZC  28 c20
M  ZZC  29 c21
M  ZZC  30 c22
M  ZZC  31 c23
M  ZZC  32 o4
M  ZZC  33 c24
M  ZZC  34 h11
M  ZZC  35 h12
M  ZZC  36 h13
M  ZZC  37 h01
M  ZZC  38 h31
M  ZZC  39 h51
M  ZZC  40 h52
M  ZZC  41 h53
M  ZZC  42 h61
M  ZZC  43 h62
M  ZZC  44 h63
M  ZZC  45 h71
M  ZZC  46 h72
M  ZZC  47 h73
M  ZZC  48 h91
M  ZZC  49 h02
M  ZZC  50 h111
M  ZZC  51 h112
M  ZZC  52 h131
M  ZZC  53 h141
M  ZZC  54 h181
M  ZZC  55 h182
M  ZZC  56 h183
M  ZZC  57 h191
M  ZZC  58 h201
M  ZZC  59 h211
M  ZZC  60 h221
M  ZZC  61 h222
M  ZZC  62 h231
M  ZZC  63 h41
M  ZZC  64 h241
M  ZZC  65 h242
M  ZZM   1 1
M  ZZI   1 111
M  ZZM   2 3
M  ZZI   2 121
M  ZZM   3 7
M  ZZI   3 81
M  ZZM   4 10
M  ZZI   4 211
M  ZZM   5 1
M  ZZI   5 113
M  ZZM   6 1
M  ZZI   6 110
M  ZZM   7 1
M  ZZI   7 111
M  ZZM   8 1
M  ZZI   8 111
M  ZZM   9 1
M  ZZI   9 111
M  ZZM  10 3
M  ZZI  10 121
M  ZZM  11 7
M  ZZI  11 81
M  ZZM  12 10
M  ZZI  12 192
M  ZZM  13 1
M  ZZI  13 113
M  ZZM  14 3
M  ZZI  14 121
M  ZZM  15 7
M  ZZI  15 81
M  ZZM  16 10
M  ZZI  16 211
M  ZZM  17 1
M  ZZI  17 112
M  ZZM  18 37
M  ZZI  18 124
M  ZZM  19 37
M  ZZI  19 125
M  ZZM  20 37
M  ZZI  20 125
M  ZZM  21 37
M  ZZI  21 124
M  ZZM  22 63
M  ZZI  22 104
M  ZZM  23 64
M  ZZI  23 105
M  ZZM  24 1
M  ZZI  24 111
M  ZZM  25 66
M  ZZI  25 222
M  ZZM  26 63
M  ZZI  26 104
M  ZZM  27 44
M  ZZI  27 248
M  ZZM  28 37
M  ZZI  28 125
M  ZZM  29 37
M  ZZI  29 125
M  ZZM  30 1
M  ZZI  30 112
M  ZZM  31 1
M  ZZI  31 113
M  ZZM  32 6
M  ZZI  32 60
M  ZZM  33 1
M  ZZI  33 112
M  ZZM  34 5
M  ZZI  34 1
M  ZZM  35 5
M  ZZI  35 1
M  ZZM  36 5
M  ZZI  36 1
M  ZZM  37 28
M  ZZI  37 11
M  ZZM  38 5
M  ZZI  38 1
M  ZZM  39 5
M  ZZI  39 1
M  ZZM  40 5
M  ZZI  40 1
M  ZZM  41 5
M  ZZI  41 1
M  ZZM  42 5
M  ZZI  42 1
M  ZZM  43 5
M  ZZI  43 1
M  ZZM  44 5
M  ZZI  44 1
M  ZZM  45 5
M  ZZI  45 1
M  ZZM  46 5
M  ZZI  46 1
M  ZZM  47 5
M  ZZI  47 1
M  ZZM  48 5
M  ZZI  48 1
M  ZZM  49 28
M  ZZI  49 11
M  ZZM  50 5
M  ZZI  50 1
M  ZZM  51 5
M  ZZI  51 1
M  ZZM  52 5
M  ZZI  52 1
M  ZZM  53 5
M  ZZI  53 1
M  ZZM  54 5
M  ZZI  54 1
M  ZZM  55 5
M  ZZI  55 1
M  ZZM  56 5
M  ZZI  56 1
M  ZZM  57 5
M  ZZI  57 1
M  ZZM  58 5
M  ZZI  58 1
M  ZZM  59 5
M  ZZI  59 1
M  ZZM  60 5
M  ZZI  60 1
M  ZZM  61 5
M  ZZI  61 1
M  ZZM  62 5
M  ZZI  62 1
M  ZZM  63 21
M  ZZI  63 20
M  ZZM  64 5
M  ZZI  64 1
M  ZZM  65 5
M  ZZI  65 1
M  END
> <IX>
1

> <NAME>
VHL_6YOJ_6.pdb

> <Score>
-7.288746

> <Natom>
65

> <Nflex>
8

> <Hbond>
-6.275486

> <Hphob>
-6.798335

> <VwInt>
-28.258554

> <Dsolv>
21.799528

> <SolEl>
23.749441

> <Eintl>
7.62899

> <RecConf>
ND

> <projPath>
VHL_maps/

> <NAME_>
VHL_6YOJ_6.pdb

$$$$
