Cereblon_1HWK_7.pdb
  MOLSOFT 04032206193D

 31 33  0  0  1  0  0  0  0  0999 V2000
   78.0694   40.6278   42.6637 N   0  0  0  0  0  0  0  0  0  0  0  0
   78.1253   41.7201   41.7828 C   0  0  0  0  0  0  0  0  0  0  0  0
   77.3021   41.8178   40.6696 C   0  0  0  0  0  0  0  0  0  0  0  0
   76.2337   40.9315   40.2136 C   0  0  0  0  0  0  0  0  0  0  0  0
   75.9818   39.8440   40.7130 O   0  0  0  0  0  0  0  0  0  0  0  0
   75.6169   41.5651   39.1506 N   0  0  0  0  0  0  0  0  0  0  0  0
   76.3464   42.6743   38.7730 C   0  0  0  0  0  0  0  0  0  0  0  0
   76.2464   43.3769   37.7784 O   0  0  0  0  0  0  0  0  0  0  0  0
   77.3812   42.8548   39.7911 C   0  0  0  0  0  0  0  0  0  0  0  0
   78.3239   43.8577   39.9240 C   0  0  0  0  0  0  0  0  0  0  0  0
   79.1881   43.7691   41.0074 C   0  0  0  0  0  0  0  0  0  0  0  0
   79.0862   42.7196   41.9223 C   0  0  0  0  0  0  0  0  0  0  0  0
   74.3712   41.0538   38.5502 C   0  0  1  0  0  0  0  0  0  0  0  0
   73.2306   41.3259   39.5220 C   0  0  0  0  0  0  0  0  0  0  0  0
   73.4041   41.6086   40.6950 O   0  0  0  0  0  0  0  0  0  0  0  0
   71.9622   41.1803   39.0200 N   0  0  0  0  0  0  0  0  0  0  0  0
   71.5876   40.9416   37.7233 C   0  0  0  0  0  0  0  0  0  0  0  0
   70.4263   40.6969   37.4345 O   0  0  0  0  0  0  0  0  0  0  0  0
   72.7063   40.9433   36.7023 C   0  0  0  0  0  0  0  0  0  0  0  0
   73.9425   41.6693   37.2179 C   0  0  0  0  0  0  0  0  0  0  0  0
   78.6449   40.6156   43.5046 H   0  0  0  0  0  0  0  0  0  0  0  0
   77.2685   39.9968   42.6081 H   0  0  0  0  0  0  0  0  0  0  0  0
   78.3856   44.6771   39.2164 H   0  0  0  0  0  0  0  0  0  0  0  0
   79.9466   44.5323   41.1510 H   0  0  0  0  0  0  0  0  0  0  0  0
   79.7739   42.6862   42.7614 H   0  0  0  0  0  0  0  0  0  0  0  0
   74.4699   39.9649   38.4676 H   0  0  0  0  0  0  0  0  0  0  0  0
   71.2093   41.2764   39.6889 H   0  0  0  0  0  0  0  0  0  0  0  0
   72.9437   39.9031   36.4553 H   0  0  0  0  0  0  0  0  0  0  0  0
   72.3451   41.4334   35.7923 H   0  0  0  0  0  0  0  0  0  0  0  0
   74.7385   41.6140   36.4742 H   0  0  0  0  0  0  0  0  0  0  0  0
   73.7099   42.7334   37.3439 H   0  0  0  0  0  0  0  0  0  0  0  0
  1  2  1  0  0  0  0
  1 21  1  0  0  0  0
  1 22  1  0  0  0  0
  2  3  1  0  0  0  0
  2 12  2  0  0  0  0
  3  9  2  0  0  0  0
  3  4  1  0  0  0  0
  4  5  2  0  0  0  0
  4  6  1  0  0  0  0
  6  7  1  0  0  0  0
 13  6  1  0  0  0  0
  7  8  2  0  0  0  0
  7  9  1  0  0  0  0
  9 10  1  0  0  0  0
 10 23  1  0  0  0  0
 10 11  2  0  0  0  0
 11 12  1  0  0  0  0
 11 24  1  0  0  0  0
 12 25  1  0  0  0  0
 13 26  1  0  0  0  0
 13 14  1  0  0  0  0
 13 20  1  0  0  0  0
 14 15  2  0  0  0  0
 14 16  1  0  0  0  0
 16 27  1  0  0  0  0
 16 17  1  0  0  0  0
 17 18  2  0  0  0  0
 17 19  1  0  0  0  0
 19 28  1  0  0  0  0
 19 29  1  0  0  0  0
 19 20  1  0  0  0  0
 20 30  1  0  0  0  0
 20 31  1  0  0  0  0
M  ZZC   1 n1
M  ZZC   2 c1
M  ZZC   3 c2
M  ZZC   4 c3
M  ZZC   5 o1
M  ZZC   6 n2
M  ZZC   7 c4
M  ZZC   8 o2
M  ZZC   9 c5
M  ZZC  10 c6
M  ZZC  11 c7
M  ZZC  12 c8
M  ZZC  13 c9
M  ZZC  14 c10
M  ZZC  15 o3
M  ZZC  16 n3
M  ZZC  17 c11
M  ZZC  18 o4
M  ZZC  19 c12
M  ZZC  20 c13
M  ZZC  21 h11
M  ZZC  22 h12
M  ZZC  23 h61
M  ZZC  24 h71
M  ZZC  25 h81
M  ZZC  26 h91
M  ZZC  27 h31
M  ZZC  28 h121
M  ZZC  29 h122
M  ZZC  30 h131
M  ZZC  31 h132
M  ZZM   1 40
M  ZZI   1 224
M  ZZM   2 37
M  ZZI   2 124
M  ZZM   3 37
M  ZZI   3 124
M  ZZM   4 3
M  ZZI   4 121
M  ZZM   5 7
M  ZZI   5 81
M  ZZM   6 10
M  ZZI   6 192
M  ZZM   7 3
M  ZZI   7 121
M  ZZM   8 7
M  ZZI   8 81
M  ZZM   9 37
M  ZZI   9 124
M  ZZM  10 37
M  ZZI  10 125
M  ZZM  11 37
M  ZZI  11 125
M  ZZM  12 37
M  ZZI  12 125
M  ZZM  13 1
M  ZZI  13 113
M  ZZM  14 3
M  ZZI  14 121
M  ZZM  15 7
M  ZZI  15 81
M  ZZM  16 10
M  ZZI  16 191
M  ZZM  17 3
M  ZZI  17 121
M  ZZM  18 7
M  ZZI  18 81
M  ZZM  19 1
M  ZZI  19 112
M  ZZM  20 1
M  ZZI  20 112
M  ZZM  21 28
M  ZZI  21 11
M  ZZM  22 28
M  ZZI  22 11
M  ZZM  23 5
M  ZZI  23 1
M  ZZM  24 5
M  ZZI  24 1
M  ZZM  25 5
M  ZZI  25 1
M  ZZM  26 5
M  ZZI  26 1
M  ZZM  27 28
M  ZZI  27 11
M  ZZM  28 5
M  ZZI  28 1
M  ZZM  29 5
M  ZZI  29 1
M  ZZM  30 5
M  ZZI  30 1
M  ZZM  31 5
M  ZZI  31 1
M  END
> <IX>
1

> <NAME>
Cereblon_1HWK_7.pdb

> <Score>
-15.02313

> <Natom>
31

> <Nflex>
1

> <Hbond>
-2.765484

> <Hphob>
-3.747

> <VwInt>
-26.695421

> <Dsolv>
17.099581

> <SolEl>
6.41048

> <Eintl>
5.873088

> <RecConf>
ND

> <projPath>
Cereblon_maps/

> <NAME_>
Cereblon_1HWK_7.pdb

$$$$
