Cereblon_3HLL_14.pdb
  MOLSOFT 04032206203D

 30 32  0  0  1  0  0  0  0  0999 V2000
   77.5951   41.0660   42.0847 C   0  0  0  0  0  0  0  0  0  0  0  0
   76.9633   41.1334   40.8538 C   0  0  0  0  0  0  0  0  0  0  0  0
   77.2595   42.1428   39.9776 C   0  0  0  0  0  0  0  0  0  0  0  0
   76.4106   41.9811   38.7916 C   0  0  0  0  0  0  0  0  0  0  0  0
   76.4476   42.6994   37.8025 O   0  0  0  0  0  0  0  0  0  0  0  0
   75.5713   40.9119   39.0467 N   0  0  0  0  0  0  0  0  0  0  0  0
   74.2646   40.7555   38.3881 C   0  0  2  0  0  0  0  0  0  0  0  0
   73.2411   41.5299   39.2020 C   0  0  0  0  0  0  0  0  0  0  0  0
   73.5613   42.3800   40.0164 O   0  0  0  0  0  0  0  0  0  0  0  0
   71.9229   41.2512   38.9335 N   0  0  0  0  0  0  0  0  0  0  0  0
   71.4143   40.2436   38.1501 C   0  0  0  0  0  0  0  0  0  0  0  0
   70.2121   40.1297   37.9608 O   0  0  0  0  0  0  0  0  0  0  0  0
   72.4350   39.3255   37.5093 C   0  0  0  0  0  0  0  0  0  0  0  0
   73.7602   39.3222   38.2630 C   0  0  0  0  0  0  0  0  0  0  0  0
   75.9189   40.2434   40.2863 C   0  0  0  0  0  0  0  0  0  0  0  0
   78.1848   43.1347   40.2566 C   0  0  0  0  0  0  0  0  0  0  0  0
   78.8305   43.0644   41.4844 C   0  0  0  0  0  0  0  0  0  0  0  0
   78.5294   42.0477   42.3905 C   0  0  0  0  0  0  0  0  0  0  0  0
   77.3634   40.2805   42.7977 H   0  0  0  0  0  0  0  0  0  0  0  0
   74.3156   41.2433   37.4072 H   0  0  0  0  0  0  0  0  0  0  0  0
   71.2485   41.8580   39.3827 H   0  0  0  0  0  0  0  0  0  0  0  0
   72.0222   38.3121   37.4853 H   0  0  0  0  0  0  0  0  0  0  0  0
   72.5823   39.6547   36.4750 H   0  0  0  0  0  0  0  0  0  0  0  0
   73.6171   38.8770   39.2547 H   0  0  0  0  0  0  0  0  0  0  0  0
   74.4853   38.6934   37.7394 H   0  0  0  0  0  0  0  0  0  0  0  0
   76.3010   39.2414   40.0639 H   0  0  0  0  0  0  0  0  0  0  0  0
   75.0445   40.1956   40.9310 H   0  0  0  0  0  0  0  0  0  0  0  0
   78.3933   43.9340   39.5531 H   0  0  0  0  0  0  0  0  0  0  0  0
   79.5612   43.8219   41.7495 H   0  0  0  0  0  0  0  0  0  0  0  0
   79.0327   42.0222   43.3523 H   0  0  0  0  0  0  0  0  0  0  0  0
  1 19  1  0  0  0  0
  1 18  2  0  0  0  0
  1  2  1  0  0  0  0
  2  3  2  0  0  0  0
  2 15  1  0  0  0  0
  3 16  1  0  0  0  0
  3  4  1  0  0  0  0
  4  6  1  0  0  0  0
  4  5  2  0  0  0  0
  6 15  1  0  0  0  0
  7  6  1  0  0  0  0
  7 20  1  0  0  0  0
  7  8  1  0  0  0  0
  7 14  1  0  0  0  0
  8  9  2  0  0  0  0
  8 10  1  0  0  0  0
 10 21  1  0  0  0  0
 10 11  1  0  0  0  0
 11 12  2  0  0  0  0
 11 13  1  0  0  0  0
 13 22  1  0  0  0  0
 13 23  1  0  0  0  0
 13 14  1  0  0  0  0
 14 24  1  0  0  0  0
 14 25  1  0  0  0  0
 15 26  1  0  0  0  0
 15 27  1  0  0  0  0
 16 17  2  0  0  0  0
 16 28  1  0  0  0  0
 17 18  1  0  0  0  0
 17 29  1  0  0  0  0
 18 30  1  0  0  0  0
M  ZZC   1 c1
M  ZZC   2 c2
M  ZZC   3 c3
M  ZZC   4 c4
M  ZZC   5 o1
M  ZZC   6 n1
M  ZZC   7 c5
M  ZZC   8 c6
M  ZZC   9 o2
M  ZZC  10 n2
M  ZZC  11 c7
M  ZZC  12 o3
M  ZZC  13 c8
M  ZZC  14 c9
M  ZZC  15 c10
M  ZZC  16 c11
M  ZZC  17 c12
M  ZZC  18 c13
M  ZZC  19 h11
M  ZZC  20 h51
M  ZZC  21 h21
M  ZZC  22 h81
M  ZZC  23 h82
M  ZZC  24 h91
M  ZZC  25 h92
M  ZZC  26 h101
M  ZZC  27 h102
M  ZZC  28 h111
M  ZZC  29 h121
M  ZZC  30 h131
M  ZZM   1 37
M  ZZI   1 125
M  ZZM   2 37
M  ZZI   2 124
M  ZZM   3 37
M  ZZI   3 124
M  ZZM   4 3
M  ZZI   4 121
M  ZZM   5 7
M  ZZI   5 81
M  ZZM   6 10
M  ZZI   6 192
M  ZZM   7 1
M  ZZI   7 113
M  ZZM   8 3
M  ZZI   8 121
M  ZZM   9 7
M  ZZI   9 81
M  ZZM  10 10
M  ZZI  10 191
M  ZZM  11 3
M  ZZI  11 121
M  ZZM  12 7
M  ZZI  12 81
M  ZZM  13 1
M  ZZI  13 112
M  ZZM  14 1
M  ZZI  14 112
M  ZZM  15 1
M  ZZI  15 112
M  ZZM  16 37
M  ZZI  16 125
M  ZZM  17 37
M  ZZI  17 125
M  ZZM  18 37
M  ZZI  18 125
M  ZZM  19 5
M  ZZI  19 1
M  ZZM  20 5
M  ZZI  20 1
M  ZZM  21 28
M  ZZI  21 11
M  ZZM  22 5
M  ZZI  22 1
M  ZZM  23 5
M  ZZI  23 1
M  ZZM  24 5
M  ZZI  24 1
M  ZZM  25 5
M  ZZI  25 1
M  ZZM  26 5
M  ZZI  26 1
M  ZZM  27 5
M  ZZI  27 1
M  ZZM  28 5
M  ZZI  28 1
M  ZZM  29 5
M  ZZI  29 1
M  ZZM  30 5
M  ZZI  30 1
M  END
> <IX>
1

> <NAME>
Cereblon_3HLL_14.pdb

> <Score>
-15.663896

> <Natom>
30

> <Nflex>
1

> <Hbond>
-4.254285

> <Hphob>
-3.709008

> <VwInt>
-19.368461

> <Dsolv>
13.967966

> <SolEl>
5.189381

> <Eintl>
4.086625

> <RecConf>
ND

> <projPath>
Cereblon_maps/

> <NAME_>
Cereblon_3HLL_14.pdb

$$$$
