Cereblon_6W8L_9.pdb
  MOLSOFT 04032206293D

 30 32  0  0  1  0  0  0  0  0999 V2000
   77.8290   41.3560   42.1547 C   0  0  0  0  0  0  0  0  0  0  0  0
   77.1471   41.3607   40.9480 C   0  0  0  0  0  0  0  0  0  0  0  0
   77.4068   42.3228   40.0098 C   0  0  0  0  0  0  0  0  0  0  0  0
   76.5241   42.0908   38.8594 C   0  0  0  0  0  0  0  0  0  0  0  0
   76.5246   42.7551   37.8326 O   0  0  0  0  0  0  0  0  0  0  0  0
   75.7102   41.0224   39.1892 N   0  0  0  0  0  0  0  0  0  0  0  0
   74.4174   40.7696   38.5300 C   0  0  2  0  0  0  0  0  0  0  0  0
   73.3425   41.5466   39.2672 C   0  0  0  0  0  0  0  0  0  0  0  0
   73.6062   42.4383   40.0551 O   0  0  0  0  0  0  0  0  0  0  0  0
   72.0446   41.2189   38.9608 N   0  0  0  0  0  0  0  0  0  0  0  0
   71.5969   40.1555   38.2158 C   0  0  0  0  0  0  0  0  0  0  0  0
   70.4094   40.0095   37.9635 O   0  0  0  0  0  0  0  0  0  0  0  0
   72.6685   39.2155   37.6971 C   0  0  0  0  0  0  0  0  0  0  0  0
   73.9688   39.3139   38.4906 C   0  0  0  0  0  0  0  0  0  0  0  0
   76.0834   40.4425   40.4658 C   0  0  0  0  0  0  0  0  0  0  0  0
   78.3482   43.3210   40.1993 C   0  0  0  0  0  0  0  0  0  0  0  0
   79.0483   43.3117   41.3992 C   0  0  0  0  0  0  0  0  0  0  0  0
   78.7833   42.3441   42.3684 C   0  0  0  0  0  0  0  0  0  0  0  0
   77.6237   40.6103   42.9169 H   0  0  0  0  0  0  0  0  0  0  0  0
   74.4621   41.1964   37.5212 H   0  0  0  0  0  0  0  0  0  0  0  0
   71.3367   41.8338   39.3430 H   0  0  0  0  0  0  0  0  0  0  0  0
   72.2840   38.1920   37.7458 H   0  0  0  0  0  0  0  0  0  0  0  0
   72.8448   39.4587   36.6437 H   0  0  0  0  0  0  0  0  0  0  0  0
   73.8089   38.9341   39.5066 H   0  0  0  0  0  0  0  0  0  0  0  0
   74.7353   38.6796   38.0369 H   0  0  0  0  0  0  0  0  0  0  0  0
   76.4492   39.4217   40.3112 H   0  0  0  0  0  0  0  0  0  0  0  0
   75.2259   40.4592   41.1320 H   0  0  0  0  0  0  0  0  0  0  0  0
   78.5316   44.0796   39.4456 H   0  0  0  0  0  0  0  0  0  0  0  0
   79.7950   44.0756   41.5915 H   0  0  0  0  0  0  0  0  0  0  0  0
   79.3295   42.3629   43.3066 H   0  0  0  0  0  0  0  0  0  0  0  0
  1 19  1  0  0  0  0
  1 18  2  0  0  0  0
  1  2  1  0  0  0  0
  2  3  2  0  0  0  0
  2 15  1  0  0  0  0
  3 16  1  0  0  0  0
  3  4  1  0  0  0  0
  4  6  1  0  0  0  0
  4  5  2  0  0  0  0
  6 15  1  0  0  0  0
  7  6  1  0  0  0  0
  7 20  1  0  0  0  0
  7  8  1  0  0  0  0
  7 14  1  0  0  0  0
  8  9  2  0  0  0  0
  8 10  1  0  0  0  0
 10 21  1  0  0  0  0
 10 11  1  0  0  0  0
 11 12  2  0  0  0  0
 11 13  1  0  0  0  0
 13 22  1  0  0  0  0
 13 23  1  0  0  0  0
 13 14  1  0  0  0  0
 14 24  1  0  0  0  0
 14 25  1  0  0  0  0
 15 26  1  0  0  0  0
 15 27  1  0  0  0  0
 16 17  2  0  0  0  0
 16 28  1  0  0  0  0
 17 18  1  0  0  0  0
 17 29  1  0  0  0  0
 18 30  1  0  0  0  0
M  ZZC   1 c1
M  ZZC   2 c2
M  ZZC   3 c3
M  ZZC   4 c4
M  ZZC   5 o1
M  ZZC   6 n1
M  ZZC   7 c5
M  ZZC   8 c6
M  ZZC   9 o2
M  ZZC  10 n2
M  ZZC  11 c7
M  ZZC  12 o3
M  ZZC  13 c8
M  ZZC  14 c9
M  ZZC  15 c10
M  ZZC  16 c11
M  ZZC  17 c12
M  ZZC  18 c13
M  ZZC  19 h11
M  ZZC  20 h51
M  ZZC  21 h21
M  ZZC  22 h81
M  ZZC  23 h82
M  ZZC  24 h91
M  ZZC  25 h92
M  ZZC  26 h101
M  ZZC  27 h102
M  ZZC  28 h111
M  ZZC  29 h121
M  ZZC  30 h131
M  ZZM   1 37
M  ZZI   1 125
M  ZZM   2 37
M  ZZI   2 124
M  ZZM   3 37
M  ZZI   3 124
M  ZZM   4 3
M  ZZI   4 121
M  ZZM   5 7
M  ZZI   5 81
M  ZZM   6 10
M  ZZI   6 192
M  ZZM   7 1
M  ZZI   7 113
M  ZZM   8 3
M  ZZI   8 121
M  ZZM   9 7
M  ZZI   9 81
M  ZZM  10 10
M  ZZI  10 191
M  ZZM  11 3
M  ZZI  11 121
M  ZZM  12 7
M  ZZI  12 81
M  ZZM  13 1
M  ZZI  13 112
M  ZZM  14 1
M  ZZI  14 112
M  ZZM  15 1
M  ZZI  15 112
M  ZZM  16 37
M  ZZI  16 125
M  ZZM  17 37
M  ZZI  17 125
M  ZZM  18 37
M  ZZI  18 125
M  ZZM  19 5
M  ZZI  19 1
M  ZZM  20 5
M  ZZI  20 1
M  ZZM  21 28
M  ZZI  21 11
M  ZZM  22 5
M  ZZI  22 1
M  ZZM  23 5
M  ZZI  23 1
M  ZZM  24 5
M  ZZI  24 1
M  ZZM  25 5
M  ZZI  25 1
M  ZZM  26 5
M  ZZI  26 1
M  ZZM  27 5
M  ZZI  27 1
M  ZZM  28 5
M  ZZI  28 1
M  ZZM  29 5
M  ZZI  29 1
M  ZZM  30 5
M  ZZI  30 1
M  END
> <IX>
1

> <NAME>
Cereblon_6W8L_9.pdb

> <Score>
-15.606572

> <Natom>
30

> <Nflex>
1

> <Hbond>
-4.179025

> <Hphob>
-3.738168

> <VwInt>
-19.479195

> <Dsolv>
13.796371

> <SolEl>
6.039422

> <Eintl>
3.361385

> <RecConf>
ND

> <projPath>
Cereblon_maps/

> <NAME_>
Cereblon_6W8L_9.pdb

$$$$
