Cereblon_5VBP_28.pdb
  MOLSOFT 04032206273D

 30 32  0  0  1  0  0  0  0  0999 V2000
   77.6094   41.0917   42.0864 C   0  0  0  0  0  0  0  0  0  0  0  0
   76.9732   41.1534   40.8573 C   0  0  0  0  0  0  0  0  0  0  0  0
   77.2675   42.1575   39.9745 C   0  0  0  0  0  0  0  0  0  0  0  0
   76.4151   41.9894   38.7917 C   0  0  0  0  0  0  0  0  0  0  0  0
   76.4493   42.7022   37.7985 O   0  0  0  0  0  0  0  0  0  0  0  0
   75.5767   40.9212   39.0543 N   0  0  0  0  0  0  0  0  0  0  0  0
   74.2703   40.7578   38.3966 C   0  0  2  0  0  0  0  0  0  0  0  0
   73.2440   41.5331   39.2056 C   0  0  0  0  0  0  0  0  0  0  0  0
   73.5616   42.3854   40.0186 O   0  0  0  0  0  0  0  0  0  0  0  0
   71.9266   41.2510   38.9361 N   0  0  0  0  0  0  0  0  0  0  0  0
   71.4211   40.2394   38.1557 C   0  0  0  0  0  0  0  0  0  0  0  0
   70.2196   40.1239   37.9626 O   0  0  0  0  0  0  0  0  0  0  0  0
   72.4450   39.3195   37.5225 C   0  0  0  0  0  0  0  0  0  0  0  0
   73.7692   39.3229   38.2785 C   0  0  0  0  0  0  0  0  0  0  0  0
   75.9257   40.2616   40.2982 C   0  0  0  0  0  0  0  0  0  0  0  0
   78.1955   43.1491   40.2448 C   0  0  0  0  0  0  0  0  0  0  0  0
   78.8458   43.0845   41.4705 C   0  0  0  0  0  0  0  0  0  0  0  0
   78.5467   42.0732   42.3833 C   0  0  0  0  0  0  0  0  0  0  0  0
   77.3788   40.3103   42.8042 H   0  0  0  0  0  0  0  0  0  0  0  0
   74.3204   41.2407   37.4133 H   0  0  0  0  0  0  0  0  0  0  0  0
   71.2502   41.8582   39.3817 H   0  0  0  0  0  0  0  0  0  0  0  0
   72.0343   38.3051   37.5036 H   0  0  0  0  0  0  0  0  0  0  0  0
   72.5931   39.6427   36.4862 H   0  0  0  0  0  0  0  0  0  0  0  0
   73.6261   38.8822   39.2722 H   0  0  0  0  0  0  0  0  0  0  0  0
   74.4960   38.6924   37.7592 H   0  0  0  0  0  0  0  0  0  0  0  0
   76.3048   39.2566   40.0839 H   0  0  0  0  0  0  0  0  0  0  0  0
   75.0529   40.2224   40.9454 H   0  0  0  0  0  0  0  0  0  0  0  0
   78.4033   43.9442   39.5364 H   0  0  0  0  0  0  0  0  0  0  0  0
   79.5787   43.8421   41.7294 H   0  0  0  0  0  0  0  0  0  0  0  0
   79.0547   42.0516   43.3428 H   0  0  0  0  0  0  0  0  0  0  0  0
  1 19  1  0  0  0  0
  1 18  2  0  0  0  0
  1  2  1  0  0  0  0
  2  3  2  0  0  0  0
  2 15  1  0  0  0  0
  3 16  1  0  0  0  0
  3  4  1  0  0  0  0
  4  6  1  0  0  0  0
  4  5  2  0  0  0  0
  6 15  1  0  0  0  0
  7  6  1  0  0  0  0
  7 20  1  0  0  0  0
  7  8  1  0  0  0  0
  7 14  1  0  0  0  0
  8  9  2  0  0  0  0
  8 10  1  0  0  0  0
 10 21  1  0  0  0  0
 10 11  1  0  0  0  0
 11 12  2  0  0  0  0
 11 13  1  0  0  0  0
 13 22  1  0  0  0  0
 13 23  1  0  0  0  0
 13 14  1  0  0  0  0
 14 24  1  0  0  0  0
 14 25  1  0  0  0  0
 15 26  1  0  0  0  0
 15 27  1  0  0  0  0
 16 17  2  0  0  0  0
 16 28  1  0  0  0  0
 17 18  1  0  0  0  0
 17 29  1  0  0  0  0
 18 30  1  0  0  0  0
M  ZZC   1 c1
M  ZZC   2 c2
M  ZZC   3 c3
M  ZZC   4 c4
M  ZZC   5 o1
M  ZZC   6 n1
M  ZZC   7 c5
M  ZZC   8 c6
M  ZZC   9 o2
M  ZZC  10 n2
M  ZZC  11 c7
M  ZZC  12 o3
M  ZZC  13 c8
M  ZZC  14 c9
M  ZZC  15 c10
M  ZZC  16 c11
M  ZZC  17 c12
M  ZZC  18 c13
M  ZZC  19 h11
M  ZZC  20 h51
M  ZZC  21 h21
M  ZZC  22 h81
M  ZZC  23 h82
M  ZZC  24 h91
M  ZZC  25 h92
M  ZZC  26 h101
M  ZZC  27 h102
M  ZZC  28 h111
M  ZZC  29 h121
M  ZZC  30 h131
M  ZZM   1 37
M  ZZI   1 125
M  ZZM   2 37
M  ZZI   2 124
M  ZZM   3 37
M  ZZI   3 124
M  ZZM   4 3
M  ZZI   4 121
M  ZZM   5 7
M  ZZI   5 81
M  ZZM   6 10
M  ZZI   6 192
M  ZZM   7 1
M  ZZI   7 113
M  ZZM   8 3
M  ZZI   8 121
M  ZZM   9 7
M  ZZI   9 81
M  ZZM  10 10
M  ZZI  10 191
M  ZZM  11 3
M  ZZI  11 121
M  ZZM  12 7
M  ZZI  12 81
M  ZZM  13 1
M  ZZI  13 112
M  ZZM  14 1
M  ZZI  14 112
M  ZZM  15 1
M  ZZI  15 112
M  ZZM  16 37
M  ZZI  16 125
M  ZZM  17 37
M  ZZI  17 125
M  ZZM  18 37
M  ZZI  18 125
M  ZZM  19 5
M  ZZI  19 1
M  ZZM  20 5
M  ZZI  20 1
M  ZZM  21 28
M  ZZI  21 11
M  ZZM  22 5
M  ZZI  22 1
M  ZZM  23 5
M  ZZI  23 1
M  ZZM  24 5
M  ZZI  24 1
M  ZZM  25 5
M  ZZI  25 1
M  ZZM  26 5
M  ZZI  26 1
M  ZZM  27 5
M  ZZI  27 1
M  ZZM  28 5
M  ZZI  28 1
M  ZZM  29 5
M  ZZI  29 1
M  ZZM  30 5
M  ZZI  30 1
M  END
> <IX>
1

> <NAME>
Cereblon_5VBP_28.pdb

> <Score>
-15.684461

> <Natom>
30

> <Nflex>
1

> <Hbond>
-4.219788

> <Hphob>
-3.686987

> <VwInt>
-19.437495

> <Dsolv>
13.95923

> <SolEl>
5.163363

> <Eintl>
4.036897

> <RecConf>
ND

> <projPath>
Cereblon_maps/

> <NAME_>
Cereblon_5VBP_28.pdb

$$$$
