Cereblon_4CI3_9.pdb
  MOLSOFT 04032206233D

 31 33  0  0  1  0  0  0  0  0999 V2000
   65.7489   38.2087   40.7308 N   0  0  0  0  0  0  0  0  0  0  0  0
   66.3281   37.6836   39.5657 C   0  0  0  0  0  0  0  0  0  0  0  0
   67.6642   37.8636   39.2362 C   0  0  0  0  0  0  0  0  0  0  0  0
   68.7014   38.6716   39.8838 C   0  0  0  0  0  0  0  0  0  0  0  0
   68.5183   39.3887   40.8591 O   0  0  0  0  0  0  0  0  0  0  0  0
   69.8552   38.4935   39.1443 N   0  0  0  0  0  0  0  0  0  0  0  0
   69.6192   37.6901   38.0478 C   0  0  0  0  0  0  0  0  0  0  0  0
   70.3653   37.3662   37.1356 O   0  0  0  0  0  0  0  0  0  0  0  0
   68.2205   37.2778   38.1368 C   0  0  0  0  0  0  0  0  0  0  0  0
   67.5034   36.4547   37.2896 C   0  0  0  0  0  0  0  0  0  0  0  0
   66.1761   36.2254   37.6200 C   0  0  0  0  0  0  0  0  0  0  0  0
   65.6080   36.8164   38.7477 C   0  0  0  0  0  0  0  0  0  0  0  0
   71.0912   39.2308   39.4280 C   0  0  2  0  0  0  0  0  0  0  0  0
   71.0578   40.5485   38.6824 C   0  0  0  0  0  0  0  0  0  0  0  0
   70.0769   40.9554   38.0782 O   0  0  0  0  0  0  0  0  0  0  0  0
   72.2227   41.2693   38.7793 N   0  0  0  0  0  0  0  0  0  0  0  0
   73.4161   40.8578   39.3209 C   0  0  0  0  0  0  0  0  0  0  0  0
   74.2848   41.6565   39.6381 O   0  0  0  0  0  0  0  0  0  0  0  0
   73.5696   39.3661   39.5557 C   0  0  0  0  0  0  0  0  0  0  0  0
   72.3955   38.5431   39.0423 C   0  0  0  0  0  0  0  0  0  0  0  0
   64.7325   38.1878   40.7922 H   0  0  0  0  0  0  0  0  0  0  0  0
   66.2260   38.9674   41.2194 H   0  0  0  0  0  0  0  0  0  0  0  0
   67.9551   36.0049   36.4105 H   0  0  0  0  0  0  0  0  0  0  0  0
   65.5717   35.5783   36.9909 H   0  0  0  0  0  0  0  0  0  0  0  0
   64.5705   36.5999   38.9843 H   0  0  0  0  0  0  0  0  0  0  0  0
   71.0908   39.4673   40.4992 H   0  0  0  0  0  0  0  0  0  0  0  0
   72.1827   42.2309   38.4698 H   0  0  0  0  0  0  0  0  0  0  0  0
   74.4969   39.0335   39.0776 H   0  0  0  0  0  0  0  0  0  0  0  0
   73.6780   39.2043   40.6286 H   0  0  0  0  0  0  0  0  0  0  0  0
   72.4802   38.4519   37.9538 H   0  0  0  0  0  0  0  0  0  0  0  0
   72.4417   37.5289   39.4527 H   0  0  0  0  0  0  0  0  0  0  0  0
  1  2  1  0  0  0  0
  1 21  1  0  0  0  0
  1 22  1  0  0  0  0
  2  3  1  0  0  0  0
  2 12  2  0  0  0  0
  3  9  2  0  0  0  0
  3  4  1  0  0  0  0
  4  5  2  0  0  0  0
  4  6  1  0  0  0  0
  6  7  1  0  0  0  0
 13  6  1  0  0  0  0
  7  8  2  0  0  0  0
  7  9  1  0  0  0  0
  9 10  1  0  0  0  0
 10 23  1  0  0  0  0
 10 11  2  0  0  0  0
 11 12  1  0  0  0  0
 11 24  1  0  0  0  0
 12 25  1  0  0  0  0
 13 26  1  0  0  0  0
 13 14  1  0  0  0  0
 13 20  1  0  0  0  0
 14 15  2  0  0  0  0
 14 16  1  0  0  0  0
 16 27  1  0  0  0  0
 16 17  1  0  0  0  0
 17 18  2  0  0  0  0
 17 19  1  0  0  0  0
 19 28  1  0  0  0  0
 19 29  1  0  0  0  0
 19 20  1  0  0  0  0
 20 30  1  0  0  0  0
 20 31  1  0  0  0  0
M  ZZC   1 n1
M  ZZC   2 c1
M  ZZC   3 c2
M  ZZC   4 c3
M  ZZC   5 o1
M  ZZC   6 n2
M  ZZC   7 c4
M  ZZC   8 o2
M  ZZC   9 c5
M  ZZC  10 c6
M  ZZC  11 c7
M  ZZC  12 c8
M  ZZC  13 c9
M  ZZC  14 c10
M  ZZC  15 o3
M  ZZC  16 n3
M  ZZC  17 c11
M  ZZC  18 o4
M  ZZC  19 c12
M  ZZC  20 c13
M  ZZC  21 h11
M  ZZC  22 h12
M  ZZC  23 h61
M  ZZC  24 h71
M  ZZC  25 h81
M  ZZC  26 h91
M  ZZC  27 h31
M  ZZC  28 h121
M  ZZC  29 h122
M  ZZC  30 h131
M  ZZC  31 h132
M  ZZM   1 40
M  ZZI   1 224
M  ZZM   2 37
M  ZZI   2 124
M  ZZM   3 37
M  ZZI   3 124
M  ZZM   4 3
M  ZZI   4 121
M  ZZM   5 7
M  ZZI   5 81
M  ZZM   6 10
M  ZZI   6 192
M  ZZM   7 3
M  ZZI   7 121
M  ZZM   8 7
M  ZZI   8 81
M  ZZM   9 37
M  ZZI   9 124
M  ZZM  10 37
M  ZZI  10 125
M  ZZM  11 37
M  ZZI  11 125
M  ZZM  12 37
M  ZZI  12 125
M  ZZM  13 1
M  ZZI  13 113
M  ZZM  14 3
M  ZZI  14 121
M  ZZM  15 7
M  ZZI  15 81
M  ZZM  16 10
M  ZZI  16 191
M  ZZM  17 3
M  ZZI  17 121
M  ZZM  18 7
M  ZZI  18 81
M  ZZM  19 1
M  ZZI  19 112
M  ZZM  20 1
M  ZZI  20 112
M  ZZM  21 28
M  ZZI  21 11
M  ZZM  22 28
M  ZZI  22 11
M  ZZM  23 5
M  ZZI  23 1
M  ZZM  24 5
M  ZZI  24 1
M  ZZM  25 5
M  ZZI  25 1
M  ZZM  26 5
M  ZZI  26 1
M  ZZM  27 28
M  ZZI  27 11
M  ZZM  28 5
M  ZZI  28 1
M  ZZM  29 5
M  ZZI  29 1
M  ZZM  30 5
M  ZZI  30 1
M  ZZM  31 5
M  ZZI  31 1
M  END
> <IX>
1

> <NAME>
Cereblon_4CI3_9.pdb

> <Score>
-17.588882

> <Natom>
31

> <Nflex>
1

> <Hbond>
-6.815384

> <Hphob>
-2.840226

> <VwInt>
-17.611569

> <Dsolv>
17.205826

> <SolEl>
5.408151

> <Eintl>
3.491353

> <RecConf>
ND

> <projPath>
Cereblon_maps/

> <NAME_>
Cereblon_4CI3_9.pdb

$$$$
