Cereblon_3LQ5_1.pdb
  MOLSOFT 04032206213D

 29 31  0  0  1  0  0  0  0  0999 V2000
   79.0052   42.4913   42.6733 C   0  0  0  0  0  0  0  0  0  0  0  0
   78.1866   42.1960   41.5975 C   0  0  0  0  0  0  0  0  0  0  0  0
   77.2684   41.0784   41.4120 C   0  0  0  0  0  0  0  0  0  0  0  0
   77.0882   40.2180   42.2602 O   0  0  0  0  0  0  0  0  0  0  0  0
   76.7279   41.2207   40.1472 N   0  0  0  0  0  0  0  0  0  0  0  0
   77.2240   42.3479   39.5243 C   0  0  0  0  0  0  0  0  0  0  0  0
   76.9879   42.7664   38.3982 O   0  0  0  0  0  0  0  0  0  0  0  0
   78.1594   42.9590   40.4690 C   0  0  0  0  0  0  0  0  0  0  0  0
   78.9582   44.0752   40.3268 C   0  0  0  0  0  0  0  0  0  0  0  0
   79.8007   44.3847   41.3886 C   0  0  0  0  0  0  0  0  0  0  0  0
   79.8243   43.6067   42.5467 C   0  0  0  0  0  0  0  0  0  0  0  0
   75.7198   40.3658   39.5142 C   0  0  2  0  0  0  0  0  0  0  0  0
   74.3395   40.9338   39.8033 C   0  0  0  0  0  0  0  0  0  0  0  0
   74.1519   42.1201   40.0166 O   0  0  0  0  0  0  0  0  0  0  0  0
   73.2896   40.0512   39.7295 N   0  0  0  0  0  0  0  0  0  0  0  0
   73.3282   38.7055   39.4577 C   0  0  0  0  0  0  0  0  0  0  0  0
   72.3127   38.0317   39.4008 O   0  0  0  0  0  0  0  0  0  0  0  0
   74.6930   38.1252   39.1789 C   0  0  0  0  0  0  0  0  0  0  0  0
   75.7751   38.8956   39.9152 C   0  0  0  0  0  0  0  0  0  0  0  0
   79.0167   41.8761   43.5689 H   0  0  0  0  0  0  0  0  0  0  0  0
   78.9271   44.6763   39.4259 H   0  0  0  0  0  0  0  0  0  0  0  0
   80.4494   45.2501   41.3188 H   0  0  0  0  0  0  0  0  0  0  0  0
   80.4918   43.8747   43.3608 H   0  0  0  0  0  0  0  0  0  0  0  0
   75.8590   40.4540   38.4347 H   0  0  0  0  0  0  0  0  0  0  0  0
   72.3712   40.4446   39.8933 H   0  0  0  0  0  0  0  0  0  0  0  0
   74.7001   37.0794   39.5021 H   0  0  0  0  0  0  0  0  0  0  0  0
   74.8530   38.1477   38.0965 H   0  0  0  0  0  0  0  0  0  0  0  0
   75.6127   38.7756   40.9900 H   0  0  0  0  0  0  0  0  0  0  0  0
   76.7606   38.4743   39.6918 H   0  0  0  0  0  0  0  0  0  0  0  0
  1 20  1  0  0  0  0
  1  2  1  0  0  0  0
  1 11  2  0  0  0  0
  2  3  1  0  0  0  0
  2  8  2  0  0  0  0
  3  4  2  0  0  0  0
  3  5  1  0  0  0  0
  5  6  1  0  0  0  0
 12  5  1  0  0  0  0
  6  7  2  0  0  0  0
  6  8  1  0  0  0  0
  8  9  1  0  0  0  0
  9 21  1  0  0  0  0
  9 10  2  0  0  0  0
 10 22  1  0  0  0  0
 10 11  1  0  0  0  0
 11 23  1  0  0  0  0
 12 24  1  0  0  0  0
 12 13  1  0  0  0  0
 12 19  1  0  0  0  0
 13 14  2  0  0  0  0
 13 15  1  0  0  0  0
 15 25  1  0  0  0  0
 15 16  1  0  0  0  0
 16 17  2  0  0  0  0
 16 18  1  0  0  0  0
 18 26  1  0  0  0  0
 18 27  1  0  0  0  0
 18 19  1  0  0  0  0
 19 28  1  0  0  0  0
 19 29  1  0  0  0  0
M  ZZC   1 c1
M  ZZC   2 c2
M  ZZC   3 c3
M  ZZC   4 o1
M  ZZC   5 n1
M  ZZC   6 c4
M  ZZC   7 o2
M  ZZC   8 c5
M  ZZC   9 c6
M  ZZC  10 c7
M  ZZC  11 c8
M  ZZC  12 c9
M  ZZC  13 c10
M  ZZC  14 o3
M  ZZC  15 n2
M  ZZC  16 c11
M  ZZC  17 o4
M  ZZC  18 c12
M  ZZC  19 c13
M  ZZC  20 h11
M  ZZC  21 h61
M  ZZC  22 h71
M  ZZC  23 h81
M  ZZC  24 h91
M  ZZC  25 h21
M  ZZC  26 h121
M  ZZC  27 h122
M  ZZC  28 h131
M  ZZC  29 h132
M  ZZM   1 37
M  ZZI   1 125
M  ZZM   2 37
M  ZZI   2 124
M  ZZM   3 3
M  ZZI   3 121
M  ZZM   4 7
M  ZZI   4 81
M  ZZM   5 10
M  ZZI   5 192
M  ZZM   6 3
M  ZZI   6 121
M  ZZM   7 7
M  ZZI   7 81
M  ZZM   8 37
M  ZZI   8 124
M  ZZM   9 37
M  ZZI   9 125
M  ZZM  10 37
M  ZZI  10 125
M  ZZM  11 37
M  ZZI  11 125
M  ZZM  12 1
M  ZZI  12 113
M  ZZM  13 3
M  ZZI  13 121
M  ZZM  14 7
M  ZZI  14 81
M  ZZM  15 10
M  ZZI  15 191
M  ZZM  16 3
M  ZZI  16 121
M  ZZM  17 7
M  ZZI  17 81
M  ZZM  18 1
M  ZZI  18 112
M  ZZM  19 1
M  ZZI  19 112
M  ZZM  20 5
M  ZZI  20 1
M  ZZM  21 5
M  ZZI  21 1
M  ZZM  22 5
M  ZZI  22 1
M  ZZM  23 5
M  ZZI  23 1
M  ZZM  24 5
M  ZZI  24 1
M  ZZM  25 28
M  ZZI  25 11
M  ZZM  26 5
M  ZZI  26 1
M  ZZM  27 5
M  ZZI  27 1
M  ZZM  28 5
M  ZZI  28 1
M  ZZM  29 5
M  ZZI  29 1
M  END
> <IX>
1

> <NAME>
Cereblon_3LQ5_1.pdb

> <Score>
-19.282026

> <Natom>
29

> <Nflex>
1

> <Hbond>
-3.303167

> <Hphob>
-3.511902

> <VwInt>
-22.8229

> <Dsolv>
12.023368

> <SolEl>
5.673708

> <Eintl>
1.481144

> <RecConf>
ND

> <projPath>
Cereblon_maps/

> <NAME_>
Cereblon_3LQ5_1.pdb

$$$$
