Cereblon_2HYY_7.pdb
  MOLSOFT 04032206203D

 29 31  0  0  1  0  0  0  0  0999 V2000
   79.0074   42.4931   42.6725 C   0  0  0  0  0  0  0  0  0  0  0  0
   78.1874   42.1974   41.5978 C   0  0  0  0  0  0  0  0  0  0  0  0
   77.2696   41.0795   41.4135 C   0  0  0  0  0  0  0  0  0  0  0  0
   77.0903   40.2192   42.2618 O   0  0  0  0  0  0  0  0  0  0  0  0
   76.7283   41.2209   40.1489 N   0  0  0  0  0  0  0  0  0  0  0  0
   77.2242   42.3474   39.5247 C   0  0  0  0  0  0  0  0  0  0  0  0
   76.9870   42.7653   38.3987 O   0  0  0  0  0  0  0  0  0  0  0  0
   78.1595   42.9597   40.4688 C   0  0  0  0  0  0  0  0  0  0  0  0
   78.9585   44.0756   40.3249 C   0  0  0  0  0  0  0  0  0  0  0  0
   79.8021   44.3860   41.3858 C   0  0  0  0  0  0  0  0  0  0  0  0
   79.8267   43.6083   42.5441 C   0  0  0  0  0  0  0  0  0  0  0  0
   75.7213   40.3649   39.5158 C   0  0  2  0  0  0  0  0  0  0  0  0
   74.3408   40.9333   39.8032 C   0  0  0  0  0  0  0  0  0  0  0  0
   74.1530   42.1199   40.0146 O   0  0  0  0  0  0  0  0  0  0  0  0
   73.2912   40.0502   39.7307 N   0  0  0  0  0  0  0  0  0  0  0  0
   73.3300   38.7041   39.4617 C   0  0  0  0  0  0  0  0  0  0  0  0
   72.3144   38.0302   39.4068 O   0  0  0  0  0  0  0  0  0  0  0  0
   74.6946   38.1235   39.1835 C   0  0  0  0  0  0  0  0  0  0  0  0
   75.7769   38.8947   39.9185 C   0  0  0  0  0  0  0  0  0  0  0  0
   79.0195   41.8796   43.5690 H   0  0  0  0  0  0  0  0  0  0  0  0
   78.9273   44.6755   39.4231 H   0  0  0  0  0  0  0  0  0  0  0  0
   80.4515   45.2510   41.3147 H   0  0  0  0  0  0  0  0  0  0  0  0
   80.4951   43.8768   43.3573 H   0  0  0  0  0  0  0  0  0  0  0  0
   75.8613   40.4518   38.4362 H   0  0  0  0  0  0  0  0  0  0  0  0
   72.3725   40.4433   39.8934 H   0  0  0  0  0  0  0  0  0  0  0  0
   74.7017   37.0781   39.5084 H   0  0  0  0  0  0  0  0  0  0  0  0
   74.8542   38.1455   38.1012 H   0  0  0  0  0  0  0  0  0  0  0  0
   76.7623   38.4735   39.6935 H   0  0  0  0  0  0  0  0  0  0  0  0
   75.6160   38.7760   40.9935 H   0  0  0  0  0  0  0  0  0  0  0  0
  1 20  1  0  0  0  0
  1  2  1  0  0  0  0
  1 11  2  0  0  0  0
  2  3  1  0  0  0  0
  2  8  2  0  0  0  0
  3  4  2  0  0  0  0
  3  5  1  0  0  0  0
  5  6  1  0  0  0  0
 12  5  1  0  0  0  0
  6  7  2  0  0  0  0
  6  8  1  0  0  0  0
  8  9  1  0  0  0  0
  9 21  1  0  0  0  0
  9 10  2  0  0  0  0
 10 22  1  0  0  0  0
 10 11  1  0  0  0  0
 11 23  1  0  0  0  0
 12 24  1  0  0  0  0
 12 13  1  0  0  0  0
 12 19  1  0  0  0  0
 13 14  2  0  0  0  0
 13 15  1  0  0  0  0
 15 25  1  0  0  0  0
 15 16  1  0  0  0  0
 16 17  2  0  0  0  0
 16 18  1  0  0  0  0
 18 26  1  0  0  0  0
 18 27  1  0  0  0  0
 18 19  1  0  0  0  0
 19 28  1  0  0  0  0
 19 29  1  0  0  0  0
M  ZZC   1 c1
M  ZZC   2 c2
M  ZZC   3 c3
M  ZZC   4 o1
M  ZZC   5 n1
M  ZZC   6 c4
M  ZZC   7 o2
M  ZZC   8 c5
M  ZZC   9 c6
M  ZZC  10 c7
M  ZZC  11 c8
M  ZZC  12 c9
M  ZZC  13 c10
M  ZZC  14 o3
M  ZZC  15 n2
M  ZZC  16 c11
M  ZZC  17 o4
M  ZZC  18 c12
M  ZZC  19 c13
M  ZZC  20 h11
M  ZZC  21 h61
M  ZZC  22 h71
M  ZZC  23 h81
M  ZZC  24 h91
M  ZZC  25 h21
M  ZZC  26 h121
M  ZZC  27 h122
M  ZZC  28 h131
M  ZZC  29 h132
M  ZZM   1 37
M  ZZI   1 125
M  ZZM   2 37
M  ZZI   2 124
M  ZZM   3 3
M  ZZI   3 121
M  ZZM   4 7
M  ZZI   4 81
M  ZZM   5 10
M  ZZI   5 192
M  ZZM   6 3
M  ZZI   6 121
M  ZZM   7 7
M  ZZI   7 81
M  ZZM   8 37
M  ZZI   8 124
M  ZZM   9 37
M  ZZI   9 125
M  ZZM  10 37
M  ZZI  10 125
M  ZZM  11 37
M  ZZI  11 125
M  ZZM  12 1
M  ZZI  12 113
M  ZZM  13 3
M  ZZI  13 121
M  ZZM  14 7
M  ZZI  14 81
M  ZZM  15 10
M  ZZI  15 191
M  ZZM  16 3
M  ZZI  16 121
M  ZZM  17 7
M  ZZI  17 81
M  ZZM  18 1
M  ZZI  18 112
M  ZZM  19 1
M  ZZI  19 112
M  ZZM  20 5
M  ZZI  20 1
M  ZZM  21 5
M  ZZI  21 1
M  ZZM  22 5
M  ZZI  22 1
M  ZZM  23 5
M  ZZI  23 1
M  ZZM  24 5
M  ZZI  24 1
M  ZZM  25 28
M  ZZI  25 11
M  ZZM  26 5
M  ZZI  26 1
M  ZZM  27 5
M  ZZI  27 1
M  ZZM  28 5
M  ZZI  28 1
M  ZZM  29 5
M  ZZI  29 1
M  END
> <IX>
1

> <NAME>
Cereblon_2HYY_7.pdb

> <Score>
-19.212917

> <Natom>
29

> <Nflex>
1

> <Hbond>
-3.312624

> <Hphob>
-3.572869

> <VwInt>
-22.80506

> <Dsolv>
12.05718

> <SolEl>
5.801057

> <Eintl>
1.492202

> <RecConf>
ND

> <projPath>
Cereblon_maps/

> <NAME_>
Cereblon_2HYY_7.pdb

$$$$
