Cereblon_6NUQ_11.pdb
  MOLSOFT 04032206283D

 30 32  0  0  1  0  0  0  0  0999 V2000
   76.0588   42.8419   38.6171 C   0  0  0  0  0  0  0  0  0  0  0  0
   74.9791   42.0627   38.2358 C   0  0  0  0  0  0  0  0  0  0  0  0
   74.7312   40.8780   38.8689 C   0  0  0  0  0  0  0  0  0  0  0  0
   73.5575   40.2601   38.2471 C   0  0  0  0  0  0  0  0  0  0  0  0
   73.1130   39.1690   38.5722 O   0  0  0  0  0  0  0  0  0  0  0  0
   73.1133   41.1348   37.2713 N   0  0  0  0  0  0  0  0  0  0  0  0
   71.9680   40.8500   36.3871 C   0  0  1  0  0  0  0  0  0  0  0  0
   70.6415   41.0179   37.1259 C   0  0  0  0  0  0  0  0  0  0  0  0
   70.1993   40.2080   37.9262 O   0  0  0  0  0  0  0  0  0  0  0  0
   69.9384   42.1668   36.8847 N   0  0  0  0  0  0  0  0  0  0  0  0
   70.2136   43.1854   36.0240 C   0  0  0  0  0  0  0  0  0  0  0  0
   69.4822   44.1582   35.9779 O   0  0  0  0  0  0  0  0  0  0  0  0
   71.4673   43.0596   35.2026 C   0  0  0  0  0  0  0  0  0  0  0  0
   71.9225   41.6126   35.0599 C   0  0  0  0  0  0  0  0  0  0  0  0
   73.9713   42.3043   37.1719 C   0  0  0  0  0  0  0  0  0  0  0  0
   75.5097   40.3975   39.9050 C   0  0  0  0  0  0  0  0  0  0  0  0
   76.5758   41.1867   40.3091 C   0  0  0  0  0  0  0  0  0  0  0  0
   76.8452   42.3943   39.6701 C   0  0  0  0  0  0  0  0  0  0  0  0
   76.2932   43.7749   38.1141 H   0  0  0  0  0  0  0  0  0  0  0  0
   72.0350   39.7825   36.1485 H   0  0  0  0  0  0  0  0  0  0  0  0
   69.0681   42.2627   37.3913 H   0  0  0  0  0  0  0  0  0  0  0  0
   71.2564   43.4659   34.2105 H   0  0  0  0  0  0  0  0  0  0  0  0
   72.2341   43.6931   35.6523 H   0  0  0  0  0  0  0  0  0  0  0  0
   71.2116   41.1047   34.3977 H   0  0  0  0  0  0  0  0  0  0  0  0
   72.8905   41.5726   34.5523 H   0  0  0  0  0  0  0  0  0  0  0  0
   73.3943   43.2085   37.3734 H   0  0  0  0  0  0  0  0  0  0  0  0
   74.4431   42.3390   36.1849 H   0  0  0  0  0  0  0  0  0  0  0  0
   75.2977   39.4455   40.3811 H   0  0  0  0  0  0  0  0  0  0  0  0
   77.2144   40.8557   41.1224 H   0  0  0  0  0  0  0  0  0  0  0  0
   77.6922   42.9907   39.9955 H   0  0  0  0  0  0  0  0  0  0  0  0
  1 19  1  0  0  0  0
  1 18  2  0  0  0  0
  1  2  1  0  0  0  0
  2  3  2  0  0  0  0
  2 15  1  0  0  0  0
  3 16  1  0  0  0  0
  3  4  1  0  0  0  0
  4  6  1  0  0  0  0
  4  5  2  0  0  0  0
  6 15  1  0  0  0  0
  7  6  1  0  0  0  0
  7 20  1  0  0  0  0
  7  8  1  0  0  0  0
  7 14  1  0  0  0  0
  8  9  2  0  0  0  0
  8 10  1  0  0  0  0
 10 21  1  0  0  0  0
 10 11  1  0  0  0  0
 11 12  2  0  0  0  0
 11 13  1  0  0  0  0
 13 22  1  0  0  0  0
 13 23  1  0  0  0  0
 13 14  1  0  0  0  0
 14 24  1  0  0  0  0
 14 25  1  0  0  0  0
 15 26  1  0  0  0  0
 15 27  1  0  0  0  0
 16 17  2  0  0  0  0
 16 28  1  0  0  0  0
 17 18  1  0  0  0  0
 17 29  1  0  0  0  0
 18 30  1  0  0  0  0
M  ZZC   1 c1
M  ZZC   2 c2
M  ZZC   3 c3
M  ZZC   4 c4
M  ZZC   5 o1
M  ZZC   6 n1
M  ZZC   7 c5
M  ZZC   8 c6
M  ZZC   9 o2
M  ZZC  10 n2
M  ZZC  11 c7
M  ZZC  12 o3
M  ZZC  13 c8
M  ZZC  14 c9
M  ZZC  15 c10
M  ZZC  16 c11
M  ZZC  17 c12
M  ZZC  18 c13
M  ZZC  19 h11
M  ZZC  20 h51
M  ZZC  21 h21
M  ZZC  22 h81
M  ZZC  23 h82
M  ZZC  24 h91
M  ZZC  25 h92
M  ZZC  26 h101
M  ZZC  27 h102
M  ZZC  28 h111
M  ZZC  29 h121
M  ZZC  30 h131
M  ZZM   1 37
M  ZZI   1 125
M  ZZM   2 37
M  ZZI   2 124
M  ZZM   3 37
M  ZZI   3 124
M  ZZM   4 3
M  ZZI   4 121
M  ZZM   5 7
M  ZZI   5 81
M  ZZM   6 10
M  ZZI   6 192
M  ZZM   7 1
M  ZZI   7 113
M  ZZM   8 3
M  ZZI   8 121
M  ZZM   9 7
M  ZZI   9 81
M  ZZM  10 10
M  ZZI  10 191
M  ZZM  11 3
M  ZZI  11 121
M  ZZM  12 7
M  ZZI  12 81
M  ZZM  13 1
M  ZZI  13 112
M  ZZM  14 1
M  ZZI  14 112
M  ZZM  15 1
M  ZZI  15 112
M  ZZM  16 37
M  ZZI  16 125
M  ZZM  17 37
M  ZZI  17 125
M  ZZM  18 37
M  ZZI  18 125
M  ZZM  19 5
M  ZZI  19 1
M  ZZM  20 5
M  ZZI  20 1
M  ZZM  21 28
M  ZZI  21 11
M  ZZM  22 5
M  ZZI  22 1
M  ZZM  23 5
M  ZZI  23 1
M  ZZM  24 5
M  ZZI  24 1
M  ZZM  25 5
M  ZZI  25 1
M  ZZM  26 5
M  ZZI  26 1
M  ZZM  27 5
M  ZZI  27 1
M  ZZM  28 5
M  ZZI  28 1
M  ZZM  29 5
M  ZZI  29 1
M  ZZM  30 5
M  ZZI  30 1
M  END
> <IX>
1

> <NAME>
Cereblon_6NUQ_11.pdb

> <Score>
-14.198244

> <Natom>
30

> <Nflex>
1

> <Hbond>
-4.296756

> <Hphob>
-3.944123

> <VwInt>
-21.855845

> <Dsolv>
12.611342

> <SolEl>
11.831672

> <Eintl>
5.505911

> <RecConf>
ND

> <projPath>
Cereblon_maps/

> <NAME_>
Cereblon_6NUQ_11.pdb

$$$$
