Cereblon_2WXL_3.pdb
  MOLSOFT 04032206203D

 29 31  0  0  1  0  0  0  0  0999 V2000
   78.9967   42.4791   42.6758 C   0  0  0  0  0  0  0  0  0  0  0  0
   78.1792   42.1884   41.5984 C   0  0  0  0  0  0  0  0  0  0  0  0
   77.2633   41.0702   41.4080 C   0  0  0  0  0  0  0  0  0  0  0  0
   77.0861   40.2042   42.2515 O   0  0  0  0  0  0  0  0  0  0  0  0
   76.7209   41.2190   40.1448 N   0  0  0  0  0  0  0  0  0  0  0  0
   77.2203   42.3463   39.5244 C   0  0  0  0  0  0  0  0  0  0  0  0
   76.9879   42.7660   38.3983 O   0  0  0  0  0  0  0  0  0  0  0  0
   78.1546   42.9546   40.4720 C   0  0  0  0  0  0  0  0  0  0  0  0
   78.9555   44.0700   40.3341 C   0  0  0  0  0  0  0  0  0  0  0  0
   79.7958   44.3758   41.3991 C   0  0  0  0  0  0  0  0  0  0  0  0
   79.8173   43.5935   42.5544 C   0  0  0  0  0  0  0  0  0  0  0  0
   75.7129   40.3662   39.5091 C   0  0  2  0  0  0  0  0  0  0  0  0
   74.3332   40.9366   39.7958 C   0  0  0  0  0  0  0  0  0  0  0  0
   74.1485   42.1225   40.0139 O   0  0  0  0  0  0  0  0  0  0  0  0
   73.2816   40.0569   39.7143 N   0  0  0  0  0  0  0  0  0  0  0  0
   73.3180   38.7122   39.4375 C   0  0  0  0  0  0  0  0  0  0  0  0
   72.3006   38.0418   39.3710 O   0  0  0  0  0  0  0  0  0  0  0  0
   74.6827   38.1281   39.1670 C   0  0  0  0  0  0  0  0  0  0  0  0
   75.7632   38.8950   39.9092 C   0  0  0  0  0  0  0  0  0  0  0  0
   79.0038   41.8621   43.5702 H   0  0  0  0  0  0  0  0  0  0  0  0
   78.9278   44.6734   39.4345 H   0  0  0  0  0  0  0  0  0  0  0  0
   80.4462   45.2402   41.3328 H   0  0  0  0  0  0  0  0  0  0  0  0
   80.4842   43.8585   43.3700 H   0  0  0  0  0  0  0  0  0  0  0  0
   75.8545   40.4553   38.4299 H   0  0  0  0  0  0  0  0  0  0  0  0
   72.3634   40.4524   39.8749 H   0  0  0  0  0  0  0  0  0  0  0  0
   74.6853   37.0823   39.4904 H   0  0  0  0  0  0  0  0  0  0  0  0
   74.8494   38.1490   38.0856 H   0  0  0  0  0  0  0  0  0  0  0  0
   75.5954   38.7751   40.9832 H   0  0  0  0  0  0  0  0  0  0  0  0
   76.7488   38.4711   39.6909 H   0  0  0  0  0  0  0  0  0  0  0  0
  1 20  1  0  0  0  0
  1  2  1  0  0  0  0
  1 11  2  0  0  0  0
  2  3  1  0  0  0  0
  2  8  2  0  0  0  0
  3  4  2  0  0  0  0
  3  5  1  0  0  0  0
  5  6  1  0  0  0  0
 12  5  1  0  0  0  0
  6  7  2  0  0  0  0
  6  8  1  0  0  0  0
  8  9  1  0  0  0  0
  9 21  1  0  0  0  0
  9 10  2  0  0  0  0
 10 22  1  0  0  0  0
 10 11  1  0  0  0  0
 11 23  1  0  0  0  0
 12 24  1  0  0  0  0
 12 13  1  0  0  0  0
 12 19  1  0  0  0  0
 13 14  2  0  0  0  0
 13 15  1  0  0  0  0
 15 25  1  0  0  0  0
 15 16  1  0  0  0  0
 16 17  2  0  0  0  0
 16 18  1  0  0  0  0
 18 26  1  0  0  0  0
 18 27  1  0  0  0  0
 18 19  1  0  0  0  0
 19 28  1  0  0  0  0
 19 29  1  0  0  0  0
M  ZZC   1 c1
M  ZZC   2 c2
M  ZZC   3 c3
M  ZZC   4 o1
M  ZZC   5 n1
M  ZZC   6 c4
M  ZZC   7 o2
M  ZZC   8 c5
M  ZZC   9 c6
M  ZZC  10 c7
M  ZZC  11 c8
M  ZZC  12 c9
M  ZZC  13 c10
M  ZZC  14 o3
M  ZZC  15 n2
M  ZZC  16 c11
M  ZZC  17 o4
M  ZZC  18 c12
M  ZZC  19 c13
M  ZZC  20 h11
M  ZZC  21 h61
M  ZZC  22 h71
M  ZZC  23 h81
M  ZZC  24 h91
M  ZZC  25 h21
M  ZZC  26 h121
M  ZZC  27 h122
M  ZZC  28 h131
M  ZZC  29 h132
M  ZZM   1 37
M  ZZI   1 125
M  ZZM   2 37
M  ZZI   2 124
M  ZZM   3 3
M  ZZI   3 121
M  ZZM   4 7
M  ZZI   4 81
M  ZZM   5 10
M  ZZI   5 192
M  ZZM   6 3
M  ZZI   6 121
M  ZZM   7 7
M  ZZI   7 81
M  ZZM   8 37
M  ZZI   8 124
M  ZZM   9 37
M  ZZI   9 125
M  ZZM  10 37
M  ZZI  10 125
M  ZZM  11 37
M  ZZI  11 125
M  ZZM  12 1
M  ZZI  12 113
M  ZZM  13 3
M  ZZI  13 121
M  ZZM  14 7
M  ZZI  14 81
M  ZZM  15 10
M  ZZI  15 191
M  ZZM  16 3
M  ZZI  16 121
M  ZZM  17 7
M  ZZI  17 81
M  ZZM  18 1
M  ZZI  18 112
M  ZZM  19 1
M  ZZI  19 112
M  ZZM  20 5
M  ZZI  20 1
M  ZZM  21 5
M  ZZI  21 1
M  ZZM  22 5
M  ZZI  22 1
M  ZZM  23 5
M  ZZI  23 1
M  ZZM  24 5
M  ZZI  24 1
M  ZZM  25 28
M  ZZI  25 11
M  ZZM  26 5
M  ZZI  26 1
M  ZZM  27 5
M  ZZI  27 1
M  ZZM  28 5
M  ZZI  28 1
M  ZZM  29 5
M  ZZI  29 1
M  END
> <IX>
1

> <NAME>
Cereblon_2WXL_3.pdb

> <Score>
-19.440568

> <Natom>
29

> <Nflex>
1

> <Hbond>
-3.365971

> <Hphob>
-3.574321

> <VwInt>
-22.740397

> <Dsolv>
12.090274

> <SolEl>
5.503425

> <Eintl>
1.517608

> <RecConf>
ND

> <projPath>
Cereblon_maps/

> <NAME_>
Cereblon_2WXL_3.pdb

$$$$
