Cereblon_1HWK_12.pdb
  MOLSOFT 04032206193D

 31 33  0  0  1  0  0  0  0  0999 V2000
   77.3649   41.8974   41.5837 N   0  0  0  0  0  0  0  0  0  0  0  0
   77.0610   40.5961   41.1547 C   0  0  0  0  0  0  0  0  0  0  0  0
   76.0604   40.3140   40.2316 C   0  0  0  0  0  0  0  0  0  0  0  0
   75.1507   41.2047   39.5022 C   0  0  0  0  0  0  0  0  0  0  0  0
   75.0910   42.4102   39.6908 O   0  0  0  0  0  0  0  0  0  0  0  0
   74.3996   40.4053   38.6615 N   0  0  0  0  0  0  0  0  0  0  0  0
   74.7029   39.0756   38.8604 C   0  0  0  0  0  0  0  0  0  0  0  0
   74.2142   38.0829   38.3401 O   0  0  0  0  0  0  0  0  0  0  0  0
   75.7702   39.0359   39.8561 C   0  0  0  0  0  0  0  0  0  0  0  0
   76.4226   37.9393   40.3868 C   0  0  0  0  0  0  0  0  0  0  0  0
   77.3932   38.1924   41.3452 C   0  0  0  0  0  0  0  0  0  0  0  0
   77.6932   39.4977   41.7300 C   0  0  0  0  0  0  0  0  0  0  0  0
   73.3430   40.8461   37.7381 C   0  0  1  0  0  0  0  0  0  0  0  0
   72.0345   41.0612   38.4891 C   0  0  0  0  0  0  0  0  0  0  0  0
   71.7725   40.5178   39.5523 O   0  0  0  0  0  0  0  0  0  0  0  0
   71.1095   41.8608   37.8565 N   0  0  0  0  0  0  0  0  0  0  0  0
   71.2635   42.6242   36.7240 C   0  0  0  0  0  0  0  0  0  0  0  0
   70.3999   43.4014   36.3443 O   0  0  0  0  0  0  0  0  0  0  0  0
   72.5598   42.4275   35.9762 C   0  0  0  0  0  0  0  0  0  0  0  0
   73.6935   42.0942   36.9317 C   0  0  0  0  0  0  0  0  0  0  0  0
   78.1903   42.0516   42.1585 H   0  0  0  0  0  0  0  0  0  0  0  0
   76.9965   42.6932   41.0615 H   0  0  0  0  0  0  0  0  0  0  0  0
   76.1787   36.9266   40.0805 H   0  0  0  0  0  0  0  0  0  0  0  0
   77.9198   37.3630   41.8081 H   0  0  0  0  0  0  0  0  0  0  0  0
   78.4441   39.6590   42.4972 H   0  0  0  0  0  0  0  0  0  0  0  0
   73.1546   40.0202   37.0420 H   0  0  0  0  0  0  0  0  0  0  0  0
   70.2422   41.9964   38.3540 H   0  0  0  0  0  0  0  0  0  0  0  0
   72.4170   41.6313   35.2386 H   0  0  0  0  0  0  0  0  0  0  0  0
   72.7899   43.3515   35.4387 H   0  0  0  0  0  0  0  0  0  0  0  0
   74.6195   41.9412   36.3716 H   0  0  0  0  0  0  0  0  0  0  0  0
   73.8664   42.9497   37.5898 H   0  0  0  0  0  0  0  0  0  0  0  0
  1  2  1  0  0  0  0
  1 21  1  0  0  0  0
  1 22  1  0  0  0  0
  2  3  1  0  0  0  0
  2 12  2  0  0  0  0
  3  9  2  0  0  0  0
  3  4  1  0  0  0  0
  4  5  2  0  0  0  0
  4  6  1  0  0  0  0
  6  7  1  0  0  0  0
 13  6  1  0  0  0  0
  7  8  2  0  0  0  0
  7  9  1  0  0  0  0
  9 10  1  0  0  0  0
 10 23  1  0  0  0  0
 10 11  2  0  0  0  0
 11 12  1  0  0  0  0
 11 24  1  0  0  0  0
 12 25  1  0  0  0  0
 13 26  1  0  0  0  0
 13 14  1  0  0  0  0
 13 20  1  0  0  0  0
 14 15  2  0  0  0  0
 14 16  1  0  0  0  0
 16 27  1  0  0  0  0
 16 17  1  0  0  0  0
 17 18  2  0  0  0  0
 17 19  1  0  0  0  0
 19 28  1  0  0  0  0
 19 29  1  0  0  0  0
 19 20  1  0  0  0  0
 20 30  1  0  0  0  0
 20 31  1  0  0  0  0
M  ZZC   1 n1
M  ZZC   2 c1
M  ZZC   3 c2
M  ZZC   4 c3
M  ZZC   5 o1
M  ZZC   6 n2
M  ZZC   7 c4
M  ZZC   8 o2
M  ZZC   9 c5
M  ZZC  10 c6
M  ZZC  11 c7
M  ZZC  12 c8
M  ZZC  13 c9
M  ZZC  14 c10
M  ZZC  15 o3
M  ZZC  16 n3
M  ZZC  17 c11
M  ZZC  18 o4
M  ZZC  19 c12
M  ZZC  20 c13
M  ZZC  21 h11
M  ZZC  22 h12
M  ZZC  23 h61
M  ZZC  24 h71
M  ZZC  25 h81
M  ZZC  26 h91
M  ZZC  27 h31
M  ZZC  28 h121
M  ZZC  29 h122
M  ZZC  30 h131
M  ZZC  31 h132
M  ZZM   1 40
M  ZZI   1 224
M  ZZM   2 37
M  ZZI   2 124
M  ZZM   3 37
M  ZZI   3 124
M  ZZM   4 3
M  ZZI   4 121
M  ZZM   5 7
M  ZZI   5 81
M  ZZM   6 10
M  ZZI   6 192
M  ZZM   7 3
M  ZZI   7 121
M  ZZM   8 7
M  ZZI   8 81
M  ZZM   9 37
M  ZZI   9 124
M  ZZM  10 37
M  ZZI  10 125
M  ZZM  11 37
M  ZZI  11 125
M  ZZM  12 37
M  ZZI  12 125
M  ZZM  13 1
M  ZZI  13 113
M  ZZM  14 3
M  ZZI  14 121
M  ZZM  15 7
M  ZZI  15 81
M  ZZM  16 10
M  ZZI  16 191
M  ZZM  17 3
M  ZZI  17 121
M  ZZM  18 7
M  ZZI  18 81
M  ZZM  19 1
M  ZZI  19 112
M  ZZM  20 1
M  ZZI  20 112
M  ZZM  21 28
M  ZZI  21 11
M  ZZM  22 28
M  ZZI  22 11
M  ZZM  23 5
M  ZZI  23 1
M  ZZM  24 5
M  ZZI  24 1
M  ZZM  25 5
M  ZZI  25 1
M  ZZM  26 5
M  ZZI  26 1
M  ZZM  27 28
M  ZZI  27 11
M  ZZM  28 5
M  ZZI  28 1
M  ZZM  29 5
M  ZZI  29 1
M  ZZM  30 5
M  ZZI  30 1
M  ZZM  31 5
M  ZZI  31 1
M  END
> <IX>
1

> <NAME>
Cereblon_1HWK_12.pdb

> <Score>
-15.867744

> <Natom>
31

> <Nflex>
1

> <Hbond>
-3.522581

> <Hphob>
-3.617919

> <VwInt>
-23.922281

> <Dsolv>
16.515464

> <SolEl>
8.953845

> <Eintl>
0.824228

> <RecConf>
ND

> <projPath>
Cereblon_maps/

> <NAME_>
Cereblon_1HWK_12.pdb

$$$$
