Cereblon_1HWK_2.pdb
  MOLSOFT 04032206193D

 31 33  0  0  1  0  0  0  0  0999 V2000
   77.9933   40.6344   42.7175 N   0  0  0  0  0  0  0  0  0  0  0  0
   78.1427   41.6616   41.7703 C   0  0  0  0  0  0  0  0  0  0  0  0
   77.3011   41.7872   40.6739 C   0  0  0  0  0  0  0  0  0  0  0  0
   76.2287   40.9086   40.2136 C   0  0  0  0  0  0  0  0  0  0  0  0
   75.9831   39.8133   40.6994 O   0  0  0  0  0  0  0  0  0  0  0  0
   75.6115   41.5524   39.1571 N   0  0  0  0  0  0  0  0  0  0  0  0
   76.3440   42.6622   38.7867 C   0  0  0  0  0  0  0  0  0  0  0  0
   76.2449   43.3727   37.7978 O   0  0  0  0  0  0  0  0  0  0  0  0
   77.3816   42.8312   39.8037 C   0  0  0  0  0  0  0  0  0  0  0  0
   78.3240   43.8330   39.9470 C   0  0  0  0  0  0  0  0  0  0  0  0
   79.1734   43.7447   41.0426 C   0  0  0  0  0  0  0  0  0  0  0  0
   79.0658   42.6898   41.9509 C   0  0  0  0  0  0  0  0  0  0  0  0
   74.3645   41.0483   38.5537 C   0  0  1  0  0  0  0  0  0  0  0  0
   73.2246   41.3221   39.5254 C   0  0  0  0  0  0  0  0  0  0  0  0
   73.3990   41.6049   40.6983 O   0  0  0  0  0  0  0  0  0  0  0  0
   71.9561   41.1780   39.0233 N   0  0  0  0  0  0  0  0  0  0  0  0
   71.5820   40.9433   37.7257 C   0  0  0  0  0  0  0  0  0  0  0  0
   70.4208   40.6990   37.4362 O   0  0  0  0  0  0  0  0  0  0  0  0
   72.7008   40.9489   36.7045 C   0  0  0  0  0  0  0  0  0  0  0  0
   73.9390   41.6696   37.2230 C   0  0  0  0  0  0  0  0  0  0  0  0
   78.7739   40.4215   43.3371 H   0  0  0  0  0  0  0  0  0  0  0  0
   77.3612   39.8681   42.4823 H   0  0  0  0  0  0  0  0  0  0  0  0
   78.3864   44.6590   39.2470 H   0  0  0  0  0  0  0  0  0  0  0  0
   79.9153   44.5197   41.2084 H   0  0  0  0  0  0  0  0  0  0  0  0
   79.7209   42.6726   42.8164 H   0  0  0  0  0  0  0  0  0  0  0  0
   74.4590   39.9593   38.4677 H   0  0  0  0  0  0  0  0  0  0  0  0
   71.2034   41.2731   39.6925 H   0  0  0  0  0  0  0  0  0  0  0  0
   72.9364   39.9097   36.4520 H   0  0  0  0  0  0  0  0  0  0  0  0
   72.3404   41.4445   35.7972 H   0  0  0  0  0  0  0  0  0  0  0  0
   73.7098   42.7341   37.3518 H   0  0  0  0  0  0  0  0  0  0  0  0
   74.7355   41.6141   36.4797 H   0  0  0  0  0  0  0  0  0  0  0  0
  1  2  1  0  0  0  0
  1 21  1  0  0  0  0
  1 22  1  0  0  0  0
  2  3  1  0  0  0  0
  2 12  2  0  0  0  0
  3  9  2  0  0  0  0
  3  4  1  0  0  0  0
  4  5  2  0  0  0  0
  4  6  1  0  0  0  0
  6  7  1  0  0  0  0
 13  6  1  0  0  0  0
  7  8  2  0  0  0  0
  7  9  1  0  0  0  0
  9 10  1  0  0  0  0
 10 23  1  0  0  0  0
 10 11  2  0  0  0  0
 11 12  1  0  0  0  0
 11 24  1  0  0  0  0
 12 25  1  0  0  0  0
 13 26  1  0  0  0  0
 13 14  1  0  0  0  0
 13 20  1  0  0  0  0
 14 15  2  0  0  0  0
 14 16  1  0  0  0  0
 16 27  1  0  0  0  0
 16 17  1  0  0  0  0
 17 18  2  0  0  0  0
 17 19  1  0  0  0  0
 19 28  1  0  0  0  0
 19 29  1  0  0  0  0
 19 20  1  0  0  0  0
 20 30  1  0  0  0  0
 20 31  1  0  0  0  0
M  ZZC   1 n1
M  ZZC   2 c1
M  ZZC   3 c2
M  ZZC   4 c3
M  ZZC   5 o1
M  ZZC   6 n2
M  ZZC   7 c4
M  ZZC   8 o2
M  ZZC   9 c5
M  ZZC  10 c6
M  ZZC  11 c7
M  ZZC  12 c8
M  ZZC  13 c9
M  ZZC  14 c10
M  ZZC  15 o3
M  ZZC  16 n3
M  ZZC  17 c11
M  ZZC  18 o4
M  ZZC  19 c12
M  ZZC  20 c13
M  ZZC  21 h11
M  ZZC  22 h12
M  ZZC  23 h61
M  ZZC  24 h71
M  ZZC  25 h81
M  ZZC  26 h91
M  ZZC  27 h31
M  ZZC  28 h121
M  ZZC  29 h122
M  ZZC  30 h131
M  ZZC  31 h132
M  ZZM   1 40
M  ZZI   1 224
M  ZZM   2 37
M  ZZI   2 124
M  ZZM   3 37
M  ZZI   3 124
M  ZZM   4 3
M  ZZI   4 121
M  ZZM   5 7
M  ZZI   5 81
M  ZZM   6 10
M  ZZI   6 192
M  ZZM   7 3
M  ZZI   7 121
M  ZZM   8 7
M  ZZI   8 81
M  ZZM   9 37
M  ZZI   9 124
M  ZZM  10 37
M  ZZI  10 125
M  ZZM  11 37
M  ZZI  11 125
M  ZZM  12 37
M  ZZI  12 125
M  ZZM  13 1
M  ZZI  13 113
M  ZZM  14 3
M  ZZI  14 121
M  ZZM  15 7
M  ZZI  15 81
M  ZZM  16 10
M  ZZI  16 191
M  ZZM  17 3
M  ZZI  17 121
M  ZZM  18 7
M  ZZI  18 81
M  ZZM  19 1
M  ZZI  19 112
M  ZZM  20 1
M  ZZI  20 112
M  ZZM  21 28
M  ZZI  21 11
M  ZZM  22 28
M  ZZI  22 11
M  ZZM  23 5
M  ZZI  23 1
M  ZZM  24 5
M  ZZI  24 1
M  ZZM  25 5
M  ZZI  25 1
M  ZZM  26 5
M  ZZI  26 1
M  ZZM  27 28
M  ZZI  27 11
M  ZZM  28 5
M  ZZI  28 1
M  ZZM  29 5
M  ZZI  29 1
M  ZZM  30 5
M  ZZI  30 1
M  ZZM  31 5
M  ZZI  31 1
M  END
> <IX>
1

> <NAME>
Cereblon_1HWK_2.pdb

> <Score>
-15.137643

> <Natom>
31

> <Nflex>
1

> <Hbond>
-2.874611

> <Hphob>
-3.760254

> <VwInt>
-27.018235

> <Dsolv>
17.13198

> <SolEl>
7.206926

> <Eintl>
5.778622

> <RecConf>
ND

> <projPath>
Cereblon_maps/

> <NAME_>
Cereblon_1HWK_2.pdb

$$$$
