Cereblon_5J8O_23.pdb
  MOLSOFT 04032206253D

 29 31  0  0  1  0  0  0  0  0999 V2000
   79.0060   42.4914   42.6713 C   0  0  0  0  0  0  0  0  0  0  0  0
   78.1860   42.1967   41.5964 C   0  0  0  0  0  0  0  0  0  0  0  0
   77.2681   41.0787   41.4115 C   0  0  0  0  0  0  0  0  0  0  0  0
   77.0884   40.2184   42.2597 O   0  0  0  0  0  0  0  0  0  0  0  0
   76.7271   41.2208   40.1469 N   0  0  0  0  0  0  0  0  0  0  0  0
   77.2227   42.3478   39.5233 C   0  0  0  0  0  0  0  0  0  0  0  0
   76.9868   42.7653   38.3968 O   0  0  0  0  0  0  0  0  0  0  0  0
   78.1581   42.9593   40.4678 C   0  0  0  0  0  0  0  0  0  0  0  0
   78.9571   44.0753   40.3246 C   0  0  0  0  0  0  0  0  0  0  0  0
   79.8002   44.3850   41.3859 C   0  0  0  0  0  0  0  0  0  0  0  0
   79.8252   43.6067   42.5437 C   0  0  0  0  0  0  0  0  0  0  0  0
   75.7193   40.3651   39.5143 C   0  0  2  0  0  0  0  0  0  0  0  0
   74.3388   40.9329   39.8028 C   0  0  0  0  0  0  0  0  0  0  0  0
   74.1511   42.1192   40.0164 O   0  0  0  0  0  0  0  0  0  0  0  0
   73.2890   40.0503   39.7272 N   0  0  0  0  0  0  0  0  0  0  0  0
   73.3283   38.7040   39.4592 C   0  0  0  0  0  0  0  0  0  0  0  0
   72.3133   38.0289   39.4068 O   0  0  0  0  0  0  0  0  0  0  0  0
   74.6930   38.1237   39.1806 C   0  0  0  0  0  0  0  0  0  0  0  0
   75.7751   38.8946   39.9160 C   0  0  0  0  0  0  0  0  0  0  0  0
   79.0186   41.8761   43.5667 H   0  0  0  0  0  0  0  0  0  0  0  0
   78.9259   44.6760   39.4234 H   0  0  0  0  0  0  0  0  0  0  0  0
   80.4497   45.2499   41.3153 H   0  0  0  0  0  0  0  0  0  0  0  0
   80.4943   43.8744   43.3565 H   0  0  0  0  0  0  0  0  0  0  0  0
   75.8588   40.4527   38.4349 H   0  0  0  0  0  0  0  0  0  0  0  0
   72.3705   40.4435   39.8908 H   0  0  0  0  0  0  0  0  0  0  0  0
   74.7005   37.0780   39.5044 H   0  0  0  0  0  0  0  0  0  0  0  0
   74.8522   38.1463   38.0981 H   0  0  0  0  0  0  0  0  0  0  0  0
   76.7608   38.4740   39.6921 H   0  0  0  0  0  0  0  0  0  0  0  0
   75.6139   38.7751   40.9911 H   0  0  0  0  0  0  0  0  0  0  0  0
  1 20  1  0  0  0  0
  1  2  1  0  0  0  0
  1 11  2  0  0  0  0
  2  3  1  0  0  0  0
  2  8  2  0  0  0  0
  3  4  2  0  0  0  0
  3  5  1  0  0  0  0
  5  6  1  0  0  0  0
 12  5  1  0  0  0  0
  6  7  2  0  0  0  0
  6  8  1  0  0  0  0
  8  9  1  0  0  0  0
  9 21  1  0  0  0  0
  9 10  2  0  0  0  0
 10 22  1  0  0  0  0
 10 11  1  0  0  0  0
 11 23  1  0  0  0  0
 12 24  1  0  0  0  0
 12 13  1  0  0  0  0
 12 19  1  0  0  0  0
 13 14  2  0  0  0  0
 13 15  1  0  0  0  0
 15 25  1  0  0  0  0
 15 16  1  0  0  0  0
 16 17  2  0  0  0  0
 16 18  1  0  0  0  0
 18 26  1  0  0  0  0
 18 27  1  0  0  0  0
 18 19  1  0  0  0  0
 19 28  1  0  0  0  0
 19 29  1  0  0  0  0
M  ZZC   1 c1
M  ZZC   2 c2
M  ZZC   3 c3
M  ZZC   4 o1
M  ZZC   5 n1
M  ZZC   6 c4
M  ZZC   7 o2
M  ZZC   8 c5
M  ZZC   9 c6
M  ZZC  10 c7
M  ZZC  11 c8
M  ZZC  12 c9
M  ZZC  13 c10
M  ZZC  14 o3
M  ZZC  15 n2
M  ZZC  16 c11
M  ZZC  17 o4
M  ZZC  18 c12
M  ZZC  19 c13
M  ZZC  20 h11
M  ZZC  21 h61
M  ZZC  22 h71
M  ZZC  23 h81
M  ZZC  24 h91
M  ZZC  25 h21
M  ZZC  26 h121
M  ZZC  27 h122
M  ZZC  28 h131
M  ZZC  29 h132
M  ZZM   1 37
M  ZZI   1 125
M  ZZM   2 37
M  ZZI   2 124
M  ZZM   3 3
M  ZZI   3 121
M  ZZM   4 7
M  ZZI   4 81
M  ZZM   5 10
M  ZZI   5 192
M  ZZM   6 3
M  ZZI   6 121
M  ZZM   7 7
M  ZZI   7 81
M  ZZM   8 37
M  ZZI   8 124
M  ZZM   9 37
M  ZZI   9 125
M  ZZM  10 37
M  ZZI  10 125
M  ZZM  11 37
M  ZZI  11 125
M  ZZM  12 1
M  ZZI  12 113
M  ZZM  13 3
M  ZZI  13 121
M  ZZM  14 7
M  ZZI  14 81
M  ZZM  15 10
M  ZZI  15 191
M  ZZM  16 3
M  ZZI  16 121
M  ZZM  17 7
M  ZZI  17 81
M  ZZM  18 1
M  ZZI  18 112
M  ZZM  19 1
M  ZZI  19 112
M  ZZM  20 5
M  ZZI  20 1
M  ZZM  21 5
M  ZZI  21 1
M  ZZM  22 5
M  ZZI  22 1
M  ZZM  23 5
M  ZZI  23 1
M  ZZM  24 5
M  ZZI  24 1
M  ZZM  25 28
M  ZZI  25 11
M  ZZM  26 5
M  ZZI  26 1
M  ZZM  27 5
M  ZZI  27 1
M  ZZM  28 5
M  ZZI  28 1
M  ZZM  29 5
M  ZZI  29 1
M  END
> <IX>
1

> <NAME>
Cereblon_5J8O_23.pdb

> <Score>
-19.205657

> <Natom>
29

> <Nflex>
1

> <Hbond>
-3.306166

> <Hphob>
-3.514726

> <VwInt>
-22.824351

> <Dsolv>
12.047996

> <SolEl>
5.767106

> <Eintl>
1.493121

> <RecConf>
ND

> <projPath>
Cereblon_maps/

> <NAME_>
Cereblon_5J8O_23.pdb

$$$$
