Cereblon_4MXO_8.pdb
  MOLSOFT 04032206233D

 31 33  0  0  1  0  0  0  0  0999 V2000
   78.8135   41.6740   43.8203 N   0  0  0  0  0  0  0  0  0  0  0  0
   78.9082   42.4199   42.6348 C   0  0  0  0  0  0  0  0  0  0  0  0
   78.1013   42.1570   41.5407 C   0  0  0  0  0  0  0  0  0  0  0  0
   77.1802   41.0468   41.3322 C   0  0  0  0  0  0  0  0  0  0  0  0
   76.9989   40.1628   42.1564 O   0  0  0  0  0  0  0  0  0  0  0  0
   76.6461   41.2129   40.0698 N   0  0  0  0  0  0  0  0  0  0  0  0
   77.1679   42.3340   39.4572 C   0  0  0  0  0  0  0  0  0  0  0  0
   76.9559   42.7575   38.3283 O   0  0  0  0  0  0  0  0  0  0  0  0
   78.0994   42.9278   40.4177 C   0  0  0  0  0  0  0  0  0  0  0  0
   78.9107   44.0377   40.2988 C   0  0  0  0  0  0  0  0  0  0  0  0
   79.7257   44.3362   41.3847 C   0  0  0  0  0  0  0  0  0  0  0  0
   79.7124   43.5516   42.5395 C   0  0  0  0  0  0  0  0  0  0  0  0
   75.6265   40.3775   39.4316 C   0  0  2  0  0  0  0  0  0  0  0  0
   74.2552   40.9567   39.7350 C   0  0  0  0  0  0  0  0  0  0  0  0
   74.0850   42.1368   39.9922 O   0  0  0  0  0  0  0  0  0  0  0  0
   73.1938   40.0920   39.6212 N   0  0  0  0  0  0  0  0  0  0  0  0
   73.2181   38.7544   39.3083 C   0  0  0  0  0  0  0  0  0  0  0  0
   72.1927   38.1020   39.1994 O   0  0  0  0  0  0  0  0  0  0  0  0
   74.5807   38.1551   39.0551 C   0  0  0  0  0  0  0  0  0  0  0  0
   75.6586   38.9025   39.8198 C   0  0  0  0  0  0  0  0  0  0  0  0
   79.5548   41.7554   44.5127 H   0  0  0  0  0  0  0  0  0  0  0  0
   78.3239   40.7790   43.7765 H   0  0  0  0  0  0  0  0  0  0  0  0
   78.9028   44.6483   39.4035 H   0  0  0  0  0  0  0  0  0  0  0  0
   80.3728   45.2053   41.3424 H   0  0  0  0  0  0  0  0  0  0  0  0
   80.3426   43.8328   43.3776 H   0  0  0  0  0  0  0  0  0  0  0  0
   75.7623   40.4776   38.3536 H   0  0  0  0  0  0  0  0  0  0  0  0
   72.2786   40.4942   39.7813 H   0  0  0  0  0  0  0  0  0  0  0  0
   74.5649   37.1072   39.3712 H   0  0  0  0  0  0  0  0  0  0  0  0
   74.7675   38.1808   37.9772 H   0  0  0  0  0  0  0  0  0  0  0  0
   75.4720   38.7743   40.8900 H   0  0  0  0  0  0  0  0  0  0  0  0
   76.6432   38.4711   39.6129 H   0  0  0  0  0  0  0  0  0  0  0  0
  1  2  1  0  0  0  0
  1 21  1  0  0  0  0
  1 22  1  0  0  0  0
  2  3  1  0  0  0  0
  2 12  2  0  0  0  0
  3  9  2  0  0  0  0
  3  4  1  0  0  0  0
  4  5  2  0  0  0  0
  4  6  1  0  0  0  0
  6  7  1  0  0  0  0
 13  6  1  0  0  0  0
  7  8  2  0  0  0  0
  7  9  1  0  0  0  0
  9 10  1  0  0  0  0
 10 23  1  0  0  0  0
 10 11  2  0  0  0  0
 11 12  1  0  0  0  0
 11 24  1  0  0  0  0
 12 25  1  0  0  0  0
 13 26  1  0  0  0  0
 13 14  1  0  0  0  0
 13 20  1  0  0  0  0
 14 15  2  0  0  0  0
 14 16  1  0  0  0  0
 16 27  1  0  0  0  0
 16 17  1  0  0  0  0
 17 18  2  0  0  0  0
 17 19  1  0  0  0  0
 19 28  1  0  0  0  0
 19 29  1  0  0  0  0
 19 20  1  0  0  0  0
 20 30  1  0  0  0  0
 20 31  1  0  0  0  0
M  ZZC   1 n1
M  ZZC   2 c1
M  ZZC   3 c2
M  ZZC   4 c3
M  ZZC   5 o1
M  ZZC   6 n2
M  ZZC   7 c4
M  ZZC   8 o2
M  ZZC   9 c5
M  ZZC  10 c6
M  ZZC  11 c7
M  ZZC  12 c8
M  ZZC  13 c9
M  ZZC  14 c10
M  ZZC  15 o3
M  ZZC  16 n3
M  ZZC  17 c11
M  ZZC  18 o4
M  ZZC  19 c12
M  ZZC  20 c13
M  ZZC  21 h11
M  ZZC  22 h12
M  ZZC  23 h61
M  ZZC  24 h71
M  ZZC  25 h81
M  ZZC  26 h91
M  ZZC  27 h31
M  ZZC  28 h121
M  ZZC  29 h122
M  ZZC  30 h131
M  ZZC  31 h132
M  ZZM   1 40
M  ZZI   1 224
M  ZZM   2 37
M  ZZI   2 124
M  ZZM   3 37
M  ZZI   3 124
M  ZZM   4 3
M  ZZI   4 121
M  ZZM   5 7
M  ZZI   5 81
M  ZZM   6 10
M  ZZI   6 192
M  ZZM   7 3
M  ZZI   7 121
M  ZZM   8 7
M  ZZI   8 81
M  ZZM   9 37
M  ZZI   9 124
M  ZZM  10 37
M  ZZI  10 125
M  ZZM  11 37
M  ZZI  11 125
M  ZZM  12 37
M  ZZI  12 125
M  ZZM  13 1
M  ZZI  13 113
M  ZZM  14 3
M  ZZI  14 121
M  ZZM  15 7
M  ZZI  15 81
M  ZZM  16 10
M  ZZI  16 191
M  ZZM  17 3
M  ZZI  17 121
M  ZZM  18 7
M  ZZI  18 81
M  ZZM  19 1
M  ZZI  19 112
M  ZZM  20 1
M  ZZI  20 112
M  ZZM  21 28
M  ZZI  21 11
M  ZZM  22 28
M  ZZI  22 11
M  ZZM  23 5
M  ZZI  23 1
M  ZZM  24 5
M  ZZI  24 1
M  ZZM  25 5
M  ZZI  25 1
M  ZZM  26 5
M  ZZI  26 1
M  ZZM  27 28
M  ZZI  27 11
M  ZZM  28 5
M  ZZI  28 1
M  ZZM  29 5
M  ZZI  29 1
M  ZZM  30 5
M  ZZI  30 1
M  ZZM  31 5
M  ZZI  31 1
M  END
> <IX>
1

> <NAME>
Cereblon_4MXO_8.pdb

> <Score>
-18.619865

> <Natom>
31

> <Nflex>
1

> <Hbond>
-3.712652

> <Hphob>
-3.575698

> <VwInt>
-24.19677

> <Dsolv>
14.961664

> <SolEl>
6.854437

> <Eintl>
1.700759

> <RecConf>
ND

> <projPath>
Cereblon_maps/

> <NAME_>
Cereblon_4MXO_8.pdb

$$$$
