Cereblon_3MXF_22.pdb
  MOLSOFT 04032206223D

 29 31  0  0  1  0  0  0  0  0999 V2000
   79.0012   42.4884   42.6727 C   0  0  0  0  0  0  0  0  0  0  0  0
   78.1843   42.1937   41.5956 C   0  0  0  0  0  0  0  0  0  0  0  0
   77.2662   41.0762   41.4092 C   0  0  0  0  0  0  0  0  0  0  0  0
   77.0850   40.2157   42.2570 O   0  0  0  0  0  0  0  0  0  0  0  0
   76.7261   41.2193   40.1443 N   0  0  0  0  0  0  0  0  0  0  0  0
   77.2227   42.3466   39.5220 C   0  0  0  0  0  0  0  0  0  0  0  0
   76.9870   42.7653   38.3960 O   0  0  0  0  0  0  0  0  0  0  0  0
   78.1576   42.9573   40.4675 C   0  0  0  0  0  0  0  0  0  0  0  0
   78.9560   44.0741   40.3270 C   0  0  0  0  0  0  0  0  0  0  0  0
   79.7975   44.3831   41.3899 C   0  0  0  0  0  0  0  0  0  0  0  0
   79.8200   43.6042   42.5474 C   0  0  0  0  0  0  0  0  0  0  0  0
   75.7168   40.3657   39.5115 C   0  0  2  0  0  0  0  0  0  0  0  0
   74.3370   40.9339   39.8023 C   0  0  0  0  0  0  0  0  0  0  0  0
   74.1505   42.1201   40.0171 O   0  0  0  0  0  0  0  0  0  0  0  0
   73.2866   40.0523   39.7257 N   0  0  0  0  0  0  0  0  0  0  0  0
   73.3243   38.7071   39.4512 C   0  0  0  0  0  0  0  0  0  0  0  0
   72.3084   38.0342   39.3917 O   0  0  0  0  0  0  0  0  0  0  0  0
   74.6890   38.1257   39.1741 C   0  0  0  0  0  0  0  0  0  0  0  0
   75.7709   38.8949   39.9119 C   0  0  0  0  0  0  0  0  0  0  0  0
   79.0119   41.8725   43.5677 H   0  0  0  0  0  0  0  0  0  0  0  0
   78.9253   44.6766   39.4269 H   0  0  0  0  0  0  0  0  0  0  0  0
   80.4452   45.2494   41.3214 H   0  0  0  0  0  0  0  0  0  0  0  0
   80.4866   43.8726   43.3621 H   0  0  0  0  0  0  0  0  0  0  0  0
   75.8553   40.4543   38.4319 H   0  0  0  0  0  0  0  0  0  0  0  0
   72.3683   40.4461   39.8895 H   0  0  0  0  0  0  0  0  0  0  0  0
   74.6955   37.0798   39.4973 H   0  0  0  0  0  0  0  0  0  0  0  0
   74.8507   38.1480   38.0920 H   0  0  0  0  0  0  0  0  0  0  0  0
   76.7565   38.4730   39.6895 H   0  0  0  0  0  0  0  0  0  0  0  0
   75.6077   38.7746   40.9865 H   0  0  0  0  0  0  0  0  0  0  0  0
  1 20  1  0  0  0  0
  1  2  1  0  0  0  0
  1 11  2  0  0  0  0
  2  3  1  0  0  0  0
  2  8  2  0  0  0  0
  3  4  2  0  0  0  0
  3  5  1  0  0  0  0
  5  6  1  0  0  0  0
 12  5  1  0  0  0  0
  6  7  2  0  0  0  0
  6  8  1  0  0  0  0
  8  9  1  0  0  0  0
  9 21  1  0  0  0  0
  9 10  2  0  0  0  0
 10 22  1  0  0  0  0
 10 11  1  0  0  0  0
 11 23  1  0  0  0  0
 12 24  1  0  0  0  0
 12 13  1  0  0  0  0
 12 19  1  0  0  0  0
 13 14  2  0  0  0  0
 13 15  1  0  0  0  0
 15 25  1  0  0  0  0
 15 16  1  0  0  0  0
 16 17  2  0  0  0  0
 16 18  1  0  0  0  0
 18 26  1  0  0  0  0
 18 27  1  0  0  0  0
 18 19  1  0  0  0  0
 19 28  1  0  0  0  0
 19 29  1  0  0  0  0
M  ZZC   1 c1
M  ZZC   2 c2
M  ZZC   3 c3
M  ZZC   4 o1
M  ZZC   5 n1
M  ZZC   6 c4
M  ZZC   7 o2
M  ZZC   8 c5
M  ZZC   9 c6
M  ZZC  10 c7
M  ZZC  11 c8
M  ZZC  12 c9
M  ZZC  13 c10
M  ZZC  14 o3
M  ZZC  15 n2
M  ZZC  16 c11
M  ZZC  17 o4
M  ZZC  18 c12
M  ZZC  19 c13
M  ZZC  20 h11
M  ZZC  21 h61
M  ZZC  22 h71
M  ZZC  23 h81
M  ZZC  24 h91
M  ZZC  25 h21
M  ZZC  26 h121
M  ZZC  27 h122
M  ZZC  28 h131
M  ZZC  29 h132
M  ZZM   1 37
M  ZZI   1 125
M  ZZM   2 37
M  ZZI   2 124
M  ZZM   3 3
M  ZZI   3 121
M  ZZM   4 7
M  ZZI   4 81
M  ZZM   5 10
M  ZZI   5 192
M  ZZM   6 3
M  ZZI   6 121
M  ZZM   7 7
M  ZZI   7 81
M  ZZM   8 37
M  ZZI   8 124
M  ZZM   9 37
M  ZZI   9 125
M  ZZM  10 37
M  ZZI  10 125
M  ZZM  11 37
M  ZZI  11 125
M  ZZM  12 1
M  ZZI  12 113
M  ZZM  13 3
M  ZZI  13 121
M  ZZM  14 7
M  ZZI  14 81
M  ZZM  15 10
M  ZZI  15 191
M  ZZM  16 3
M  ZZI  16 121
M  ZZM  17 7
M  ZZI  17 81
M  ZZM  18 1
M  ZZI  18 112
M  ZZM  19 1
M  ZZI  19 112
M  ZZM  20 5
M  ZZI  20 1
M  ZZM  21 5
M  ZZI  21 1
M  ZZM  22 5
M  ZZI  22 1
M  ZZM  23 5
M  ZZI  23 1
M  ZZM  24 5
M  ZZI  24 1
M  ZZM  25 28
M  ZZI  25 11
M  ZZM  26 5
M  ZZI  26 1
M  ZZM  27 5
M  ZZI  27 1
M  ZZM  28 5
M  ZZI  28 1
M  ZZM  29 5
M  ZZI  29 1
M  END
> <IX>
1

> <NAME>
Cereblon_3MXF_22.pdb

> <Score>
-19.16571

> <Natom>
29

> <Nflex>
1

> <Hbond>
-3.295664

> <Hphob>
-3.557657

> <VwInt>
-22.804639

> <Dsolv>
12.08242

> <SolEl>
5.783635

> <Eintl>
1.469291

> <RecConf>
ND

> <projPath>
Cereblon_maps/

> <NAME_>
Cereblon_3MXF_22.pdb

$$$$
