Cereblon_6OIM_1.pdb
  MOLSOFT 04032206293D

 29 31  0  0  1  0  0  0  0  0999 V2000
   76.3157   40.4894   40.6563 C   0  0  0  0  0  0  0  0  0  0  0  0
   75.3275   40.2833   39.7107 C   0  0  0  0  0  0  0  0  0  0  0  0
   74.4563   41.2485   39.0470 C   0  0  0  0  0  0  0  0  0  0  0  0
   74.4483   42.4334   39.3430 O   0  0  0  0  0  0  0  0  0  0  0  0
   73.6946   40.5350   38.1390 N   0  0  0  0  0  0  0  0  0  0  0  0
   73.9593   39.1839   38.2458 C   0  0  0  0  0  0  0  0  0  0  0  0
   73.4543   38.2430   37.6509 O   0  0  0  0  0  0  0  0  0  0  0  0
   75.0156   39.0434   39.2466 C   0  0  0  0  0  0  0  0  0  0  0  0
   75.6596   37.9081   39.7038 C   0  0  0  0  0  0  0  0  0  0  0  0
   76.6565   38.0906   40.6561 C   0  0  0  0  0  0  0  0  0  0  0  0
   76.9803   39.3634   41.1262 C   0  0  0  0  0  0  0  0  0  0  0  0
   72.6644   41.0734   37.2379 C   0  0  1  0  0  0  0  0  0  0  0  0
   71.3566   41.2750   37.9967 C   0  0  0  0  0  0  0  0  0  0  0  0
   71.0421   40.6161   38.9771 O   0  0  0  0  0  0  0  0  0  0  0  0
   70.4873   42.1976   37.4610 N   0  0  0  0  0  0  0  0  0  0  0  0
   70.6767   43.0456   36.4017 C   0  0  0  0  0  0  0  0  0  0  0  0
   69.8493   43.8975   36.1151 O   0  0  0  0  0  0  0  0  0  0  0  0
   71.9496   42.8406   35.6197 C   0  0  0  0  0  0  0  0  0  0  0  0
   73.0771   42.3551   36.5174 C   0  0  0  0  0  0  0  0  0  0  0  0
   76.5713   41.4834   41.0102 H   0  0  0  0  0  0  0  0  0  0  0  0
   75.4054   36.9197   39.3324 H   0  0  0  0  0  0  0  0  0  0  0  0
   77.1927   37.2281   41.0398 H   0  0  0  0  0  0  0  0  0  0  0  0
   77.7631   39.4782   41.8703 H   0  0  0  0  0  0  0  0  0  0  0  0
   72.4546   40.3038   36.4860 H   0  0  0  0  0  0  0  0  0  0  0  0
   69.6161   42.3241   37.9550 H   0  0  0  0  0  0  0  0  0  0  0  0
   71.7501   42.1262   34.8139 H   0  0  0  0  0  0  0  0  0  0  0  0
   72.2256   43.7959   35.1689 H   0  0  0  0  0  0  0  0  0  0  0  0
   73.9788   42.1805   35.9220 H   0  0  0  0  0  0  0  0  0  0  0  0
   73.3242   43.1460   37.2306 H   0  0  0  0  0  0  0  0  0  0  0  0
  1 20  1  0  0  0  0
  1  2  1  0  0  0  0
  1 11  2  0  0  0  0
  2  3  1  0  0  0  0
  2  8  2  0  0  0  0
  3  4  2  0  0  0  0
  3  5  1  0  0  0  0
  5  6  1  0  0  0  0
 12  5  1  0  0  0  0
  6  7  2  0  0  0  0
  6  8  1  0  0  0  0
  8  9  1  0  0  0  0
  9 21  1  0  0  0  0
  9 10  2  0  0  0  0
 10 22  1  0  0  0  0
 10 11  1  0  0  0  0
 11 23  1  0  0  0  0
 12 24  1  0  0  0  0
 12 13  1  0  0  0  0
 12 19  1  0  0  0  0
 13 14  2  0  0  0  0
 13 15  1  0  0  0  0
 15 25  1  0  0  0  0
 15 16  1  0  0  0  0
 16 17  2  0  0  0  0
 16 18  1  0  0  0  0
 18 26  1  0  0  0  0
 18 27  1  0  0  0  0
 18 19  1  0  0  0  0
 19 28  1  0  0  0  0
 19 29  1  0  0  0  0
M  ZZC   1 c1
M  ZZC   2 c2
M  ZZC   3 c3
M  ZZC   4 o1
M  ZZC   5 n1
M  ZZC   6 c4
M  ZZC   7 o2
M  ZZC   8 c5
M  ZZC   9 c6
M  ZZC  10 c7
M  ZZC  11 c8
M  ZZC  12 c9
M  ZZC  13 c10
M  ZZC  14 o3
M  ZZC  15 n2
M  ZZC  16 c11
M  ZZC  17 o4
M  ZZC  18 c12
M  ZZC  19 c13
M  ZZC  20 h11
M  ZZC  21 h61
M  ZZC  22 h71
M  ZZC  23 h81
M  ZZC  24 h91
M  ZZC  25 h21
M  ZZC  26 h121
M  ZZC  27 h122
M  ZZC  28 h131
M  ZZC  29 h132
M  ZZM   1 37
M  ZZI   1 125
M  ZZM   2 37
M  ZZI   2 124
M  ZZM   3 3
M  ZZI   3 121
M  ZZM   4 7
M  ZZI   4 81
M  ZZM   5 10
M  ZZI   5 192
M  ZZM   6 3
M  ZZI   6 121
M  ZZM   7 7
M  ZZI   7 81
M  ZZM   8 37
M  ZZI   8 124
M  ZZM   9 37
M  ZZI   9 125
M  ZZM  10 37
M  ZZI  10 125
M  ZZM  11 37
M  ZZI  11 125
M  ZZM  12 1
M  ZZI  12 113
M  ZZM  13 3
M  ZZI  13 121
M  ZZM  14 7
M  ZZI  14 81
M  ZZM  15 10
M  ZZI  15 191
M  ZZM  16 3
M  ZZI  16 121
M  ZZM  17 7
M  ZZI  17 81
M  ZZM  18 1
M  ZZI  18 112
M  ZZM  19 1
M  ZZI  19 112
M  ZZM  20 5
M  ZZI  20 1
M  ZZM  21 5
M  ZZI  21 1
M  ZZM  22 5
M  ZZI  22 1
M  ZZM  23 5
M  ZZI  23 1
M  ZZM  24 5
M  ZZI  24 1
M  ZZM  25 28
M  ZZI  25 11
M  ZZM  26 5
M  ZZI  26 1
M  ZZM  27 5
M  ZZI  27 1
M  ZZM  28 5
M  ZZI  28 1
M  ZZM  29 5
M  ZZI  29 1
M  END
> <IX>
1

> <NAME>
Cereblon_6OIM_1.pdb

> <Score>
-20.980719

> <Natom>
29

> <Nflex>
1

> <Hbond>
-4.510818

> <Hphob>
-3.496507

> <VwInt>
-22.55634

> <Dsolv>
13.501231

> <SolEl>
6.463397

> <Eintl>
0.564809

> <RecConf>
ND

> <projPath>
Cereblon_maps/

> <NAME_>
Cereblon_6OIM_1.pdb

$$$$
