Cereblon_4QNQ_47.pdb
  MOLSOFT 04032206243D

 31 33  0  0  1  0  0  0  0  0999 V2000
   77.4848   42.0285   41.4974 N   0  0  0  0  0  0  0  0  0  0  0  0
   77.0756   40.7136   41.2232 C   0  0  0  0  0  0  0  0  0  0  0  0
   76.0993   40.3976   40.2845 C   0  0  0  0  0  0  0  0  0  0  0  0
   75.1985   41.2596   39.5132 C   0  0  0  0  0  0  0  0  0  0  0  0
   75.1271   42.4681   39.6744 O   0  0  0  0  0  0  0  0  0  0  0  0
   74.4563   40.4326   38.6925 N   0  0  0  0  0  0  0  0  0  0  0  0
   74.7541   39.1113   38.9477 C   0  0  0  0  0  0  0  0  0  0  0  0
   74.2630   38.1012   38.4648 O   0  0  0  0  0  0  0  0  0  0  0  0
   75.8102   39.1070   39.9559 C   0  0  0  0  0  0  0  0  0  0  0  0
   76.4561   38.0287   40.5284 C   0  0  0  0  0  0  0  0  0  0  0  0
   77.4285   38.3166   41.4753 C   0  0  0  0  0  0  0  0  0  0  0  0
   77.7323   39.6353   41.8101 C   0  0  0  0  0  0  0  0  0  0  0  0
   73.3920   40.8405   37.7621 C   0  0  1  0  0  0  0  0  0  0  0  0
   72.0837   41.0552   38.5144 C   0  0  0  0  0  0  0  0  0  0  0  0
   71.8248   40.5163   39.5807 O   0  0  0  0  0  0  0  0  0  0  0  0
   71.1567   41.8519   37.8816 N   0  0  0  0  0  0  0  0  0  0  0  0
   71.2929   42.5836   36.7261 C   0  0  0  0  0  0  0  0  0  0  0  0
   70.4202   43.3427   36.3311 O   0  0  0  0  0  0  0  0  0  0  0  0
   72.5848   42.3794   35.9735 C   0  0  0  0  0  0  0  0  0  0  0  0
   73.7247   42.0783   36.9318 C   0  0  0  0  0  0  0  0  0  0  0  0
   78.0974   42.2076   42.2903 H   0  0  0  0  0  0  0  0  0  0  0  0
   76.9557   42.8147   41.1187 H   0  0  0  0  0  0  0  0  0  0  0  0
   76.2127   37.0064   40.2543 H   0  0  0  0  0  0  0  0  0  0  0  0
   77.9658   37.5058   41.9578 H   0  0  0  0  0  0  0  0  0  0  0  0
   78.5064   39.8212   42.5475 H   0  0  0  0  0  0  0  0  0  0  0  0
   73.2125   39.9977   37.0843 H   0  0  0  0  0  0  0  0  0  0  0  0
   70.2921   41.9916   38.3827 H   0  0  0  0  0  0  0  0  0  0  0  0
   72.4441   41.5637   35.2564 H   0  0  0  0  0  0  0  0  0  0  0  0
   72.8035   43.2924   35.4125 H   0  0  0  0  0  0  0  0  0  0  0  0
   73.8874   42.9477   37.5739 H   0  0  0  0  0  0  0  0  0  0  0  0
   74.6511   41.9273   36.3720 H   0  0  0  0  0  0  0  0  0  0  0  0
  1  2  1  0  0  0  0
  1 21  1  0  0  0  0
  1 22  1  0  0  0  0
  2  3  1  0  0  0  0
  2 12  2  0  0  0  0
  3  9  2  0  0  0  0
  3  4  1  0  0  0  0
  4  5  2  0  0  0  0
  4  6  1  0  0  0  0
  6  7  1  0  0  0  0
 13  6  1  0  0  0  0
  7  8  2  0  0  0  0
  7  9  1  0  0  0  0
  9 10  1  0  0  0  0
 10 23  1  0  0  0  0
 10 11  2  0  0  0  0
 11 12  1  0  0  0  0
 11 24  1  0  0  0  0
 12 25  1  0  0  0  0
 13 26  1  0  0  0  0
 13 14  1  0  0  0  0
 13 20  1  0  0  0  0
 14 15  2  0  0  0  0
 14 16  1  0  0  0  0
 16 27  1  0  0  0  0
 16 17  1  0  0  0  0
 17 18  2  0  0  0  0
 17 19  1  0  0  0  0
 19 28  1  0  0  0  0
 19 29  1  0  0  0  0
 19 20  1  0  0  0  0
 20 30  1  0  0  0  0
 20 31  1  0  0  0  0
M  ZZC   1 n1
M  ZZC   2 c1
M  ZZC   3 c2
M  ZZC   4 c3
M  ZZC   5 o1
M  ZZC   6 n2
M  ZZC   7 c4
M  ZZC   8 o2
M  ZZC   9 c5
M  ZZC  10 c6
M  ZZC  11 c7
M  ZZC  12 c8
M  ZZC  13 c9
M  ZZC  14 c10
M  ZZC  15 o3
M  ZZC  16 n3
M  ZZC  17 c11
M  ZZC  18 o4
M  ZZC  19 c12
M  ZZC  20 c13
M  ZZC  21 h11
M  ZZC  22 h12
M  ZZC  23 h61
M  ZZC  24 h71
M  ZZC  25 h81
M  ZZC  26 h91
M  ZZC  27 h31
M  ZZC  28 h121
M  ZZC  29 h122
M  ZZC  30 h131
M  ZZC  31 h132
M  ZZM   1 40
M  ZZI   1 224
M  ZZM   2 37
M  ZZI   2 124
M  ZZM   3 37
M  ZZI   3 124
M  ZZM   4 3
M  ZZI   4 121
M  ZZM   5 7
M  ZZI   5 81
M  ZZM   6 10
M  ZZI   6 192
M  ZZM   7 3
M  ZZI   7 121
M  ZZM   8 7
M  ZZI   8 81
M  ZZM   9 37
M  ZZI   9 124
M  ZZM  10 37
M  ZZI  10 125
M  ZZM  11 37
M  ZZI  11 125
M  ZZM  12 37
M  ZZI  12 125
M  ZZM  13 1
M  ZZI  13 113
M  ZZM  14 3
M  ZZI  14 121
M  ZZM  15 7
M  ZZI  15 81
M  ZZM  16 10
M  ZZI  16 191
M  ZZM  17 3
M  ZZI  17 121
M  ZZM  18 7
M  ZZI  18 81
M  ZZM  19 1
M  ZZI  19 112
M  ZZM  20 1
M  ZZI  20 112
M  ZZM  21 28
M  ZZI  21 11
M  ZZM  22 28
M  ZZI  22 11
M  ZZM  23 5
M  ZZI  23 1
M  ZZM  24 5
M  ZZI  24 1
M  ZZM  25 5
M  ZZI  25 1
M  ZZM  26 5
M  ZZI  26 1
M  ZZM  27 28
M  ZZI  27 11
M  ZZM  28 5
M  ZZI  28 1
M  ZZM  29 5
M  ZZI  29 1
M  ZZM  30 5
M  ZZI  30 1
M  ZZM  31 5
M  ZZI  31 1
M  END
> <IX>
1

> <NAME>
Cereblon_4QNQ_47.pdb

> <Score>
-15.635988

> <Natom>
31

> <Nflex>
1

> <Hbond>
-3.61291

> <Hphob>
-3.650222

> <VwInt>
-24.161296

> <Dsolv>
16.836839

> <SolEl>
9.73895

> <Eintl>
0.760472

> <RecConf>
ND

> <projPath>
Cereblon_maps/

> <NAME_>
Cereblon_4QNQ_47.pdb

$$$$
