Cereblon_4MKC_2.pdb
  MOLSOFT 04032206233D

 31 33  0  0  1  0  0  0  0  0999 V2000
   78.8170   41.6766   43.8073 N   0  0  0  0  0  0  0  0  0  0  0  0
   78.8962   42.4314   42.6271 C   0  0  0  0  0  0  0  0  0  0  0  0
   78.0941   42.1609   41.5316 C   0  0  0  0  0  0  0  0  0  0  0  0
   77.1726   41.0507   41.3259 C   0  0  0  0  0  0  0  0  0  0  0  0
   76.9919   40.1699   42.1532 O   0  0  0  0  0  0  0  0  0  0  0  0
   76.6350   41.2144   40.0647 N   0  0  0  0  0  0  0  0  0  0  0  0
   77.1598   42.3323   39.4482 C   0  0  0  0  0  0  0  0  0  0  0  0
   76.9509   42.7487   38.3161 O   0  0  0  0  0  0  0  0  0  0  0  0
   78.0913   42.9287   40.4068 C   0  0  0  0  0  0  0  0  0  0  0  0
   78.9050   44.0362   40.2832 C   0  0  0  0  0  0  0  0  0  0  0  0
   79.7251   44.3347   41.3656 C   0  0  0  0  0  0  0  0  0  0  0  0
   79.7120   43.5540   42.5231 C   0  0  0  0  0  0  0  0  0  0  0  0
   75.6172   40.3764   39.4272 C   0  0  2  0  0  0  0  0  0  0  0  0
   74.2463   40.9580   39.7265 C   0  0  0  0  0  0  0  0  0  0  0  0
   74.0777   42.1371   39.9882 O   0  0  0  0  0  0  0  0  0  0  0  0
   73.1840   40.0965   39.6010 N   0  0  0  0  0  0  0  0  0  0  0  0
   73.2079   38.7591   39.2868 C   0  0  0  0  0  0  0  0  0  0  0  0
   72.1815   38.1114   39.1636 O   0  0  0  0  0  0  0  0  0  0  0  0
   74.5715   38.1528   39.0532 C   0  0  0  0  0  0  0  0  0  0  0  0
   75.6468   38.9028   39.8198 C   0  0  0  0  0  0  0  0  0  0  0  0
   79.5377   41.7717   44.5197 H   0  0  0  0  0  0  0  0  0  0  0  0
   78.2722   40.8126   43.7941 H   0  0  0  0  0  0  0  0  0  0  0  0
   78.8985   44.6413   39.3843 H   0  0  0  0  0  0  0  0  0  0  0  0
   80.3786   45.1986   41.3179 H   0  0  0  0  0  0  0  0  0  0  0  0
   80.3496   43.8321   43.3568 H   0  0  0  0  0  0  0  0  0  0  0  0
   75.7551   40.4739   38.3492 H   0  0  0  0  0  0  0  0  0  0  0  0
   72.2685   40.5013   39.7531 H   0  0  0  0  0  0  0  0  0  0  0  0
   74.5486   37.1075   39.3774 H   0  0  0  0  0  0  0  0  0  0  0  0
   74.7687   38.1691   37.9769 H   0  0  0  0  0  0  0  0  0  0  0  0
   75.4575   38.7786   40.8899 H   0  0  0  0  0  0  0  0  0  0  0  0
   76.6321   38.4705   39.6178 H   0  0  0  0  0  0  0  0  0  0  0  0
  1  2  1  0  0  0  0
  1 21  1  0  0  0  0
  1 22  1  0  0  0  0
  2  3  1  0  0  0  0
  2 12  2  0  0  0  0
  3  9  2  0  0  0  0
  3  4  1  0  0  0  0
  4  5  2  0  0  0  0
  4  6  1  0  0  0  0
  6  7  1  0  0  0  0
 13  6  1  0  0  0  0
  7  8  2  0  0  0  0
  7  9  1  0  0  0  0
  9 10  1  0  0  0  0
 10 23  1  0  0  0  0
 10 11  2  0  0  0  0
 11 12  1  0  0  0  0
 11 24  1  0  0  0  0
 12 25  1  0  0  0  0
 13 26  1  0  0  0  0
 13 14  1  0  0  0  0
 13 20  1  0  0  0  0
 14 15  2  0  0  0  0
 14 16  1  0  0  0  0
 16 27  1  0  0  0  0
 16 17  1  0  0  0  0
 17 18  2  0  0  0  0
 17 19  1  0  0  0  0
 19 28  1  0  0  0  0
 19 29  1  0  0  0  0
 19 20  1  0  0  0  0
 20 30  1  0  0  0  0
 20 31  1  0  0  0  0
M  ZZC   1 n1
M  ZZC   2 c1
M  ZZC   3 c2
M  ZZC   4 c3
M  ZZC   5 o1
M  ZZC   6 n2
M  ZZC   7 c4
M  ZZC   8 o2
M  ZZC   9 c5
M  ZZC  10 c6
M  ZZC  11 c7
M  ZZC  12 c8
M  ZZC  13 c9
M  ZZC  14 c10
M  ZZC  15 o3
M  ZZC  16 n3
M  ZZC  17 c11
M  ZZC  18 o4
M  ZZC  19 c12
M  ZZC  20 c13
M  ZZC  21 h11
M  ZZC  22 h12
M  ZZC  23 h61
M  ZZC  24 h71
M  ZZC  25 h81
M  ZZC  26 h91
M  ZZC  27 h31
M  ZZC  28 h121
M  ZZC  29 h122
M  ZZC  30 h131
M  ZZC  31 h132
M  ZZM   1 40
M  ZZI   1 224
M  ZZM   2 37
M  ZZI   2 124
M  ZZM   3 37
M  ZZI   3 124
M  ZZM   4 3
M  ZZI   4 121
M  ZZM   5 7
M  ZZI   5 81
M  ZZM   6 10
M  ZZI   6 192
M  ZZM   7 3
M  ZZI   7 121
M  ZZM   8 7
M  ZZI   8 81
M  ZZM   9 37
M  ZZI   9 124
M  ZZM  10 37
M  ZZI  10 125
M  ZZM  11 37
M  ZZI  11 125
M  ZZM  12 37
M  ZZI  12 125
M  ZZM  13 1
M  ZZI  13 113
M  ZZM  14 3
M  ZZI  14 121
M  ZZM  15 7
M  ZZI  15 81
M  ZZM  16 10
M  ZZI  16 191
M  ZZM  17 3
M  ZZI  17 121
M  ZZM  18 7
M  ZZI  18 81
M  ZZM  19 1
M  ZZI  19 112
M  ZZM  20 1
M  ZZI  20 112
M  ZZM  21 28
M  ZZI  21 11
M  ZZM  22 28
M  ZZI  22 11
M  ZZM  23 5
M  ZZI  23 1
M  ZZM  24 5
M  ZZI  24 1
M  ZZM  25 5
M  ZZI  25 1
M  ZZM  26 5
M  ZZI  26 1
M  ZZM  27 28
M  ZZI  27 11
M  ZZM  28 5
M  ZZI  28 1
M  ZZM  29 5
M  ZZI  29 1
M  ZZM  30 5
M  ZZI  30 1
M  ZZM  31 5
M  ZZI  31 1
M  END
> <IX>
1

> <NAME>
Cereblon_4MKC_2.pdb

> <Score>
-18.402712

> <Natom>
31

> <Nflex>
1

> <Hbond>
-3.689813

> <Hphob>
-3.549613

> <VwInt>
-24.287523

> <Dsolv>
15.227762

> <SolEl>
6.871741

> <Eintl>
1.736847

> <RecConf>
ND

> <projPath>
Cereblon_maps/

> <NAME_>
Cereblon_4MKC_2.pdb

$$$$
