Cereblon_5TOB_10.pdb
  MOLSOFT 04032206263D

 31 33  0  0  1  0  0  0  0  0999 V2000
   78.8125   41.6762   43.8195 N   0  0  0  0  0  0  0  0  0  0  0  0
   78.9068   42.4212   42.6335 C   0  0  0  0  0  0  0  0  0  0  0  0
   78.1005   42.1571   41.5392 C   0  0  0  0  0  0  0  0  0  0  0  0
   77.1798   41.0465   41.3312 C   0  0  0  0  0  0  0  0  0  0  0  0
   76.9991   40.1630   42.1560 O   0  0  0  0  0  0  0  0  0  0  0  0
   76.6459   41.2113   40.0685 N   0  0  0  0  0  0  0  0  0  0  0  0
   77.1670   42.3324   39.4554 C   0  0  0  0  0  0  0  0  0  0  0  0
   76.9543   42.7557   38.3265 O   0  0  0  0  0  0  0  0  0  0  0  0
   78.0980   42.9272   40.4156 C   0  0  0  0  0  0  0  0  0  0  0  0
   78.9098   44.0365   40.2960 C   0  0  0  0  0  0  0  0  0  0  0  0
   79.7250   44.3361   41.3813 C   0  0  0  0  0  0  0  0  0  0  0  0
   79.7115   43.5525   42.5369 C   0  0  0  0  0  0  0  0  0  0  0  0
   75.6259   40.3756   39.4313 C   0  0  2  0  0  0  0  0  0  0  0  0
   74.2548   40.9552   39.7351 C   0  0  0  0  0  0  0  0  0  0  0  0
   74.0850   42.1353   39.9925 O   0  0  0  0  0  0  0  0  0  0  0  0
   73.1935   40.0909   39.6194 N   0  0  0  0  0  0  0  0  0  0  0  0
   73.2172   38.7531   39.3074 C   0  0  0  0  0  0  0  0  0  0  0  0
   72.1917   38.1012   39.1978 O   0  0  0  0  0  0  0  0  0  0  0  0
   74.5799   38.1525   39.0562 C   0  0  0  0  0  0  0  0  0  0  0  0
   75.6575   38.9011   39.8207 C   0  0  0  0  0  0  0  0  0  0  0  0
   79.5537   41.7577   44.5120 H   0  0  0  0  0  0  0  0  0  0  0  0
   78.3225   40.7813   43.7768 H   0  0  0  0  0  0  0  0  0  0  0  0
   78.9025   44.6449   39.3993 H   0  0  0  0  0  0  0  0  0  0  0  0
   80.3729   45.2045   41.3376 H   0  0  0  0  0  0  0  0  0  0  0  0
   80.3424   43.8342   43.3744 H   0  0  0  0  0  0  0  0  0  0  0  0
   75.7615   40.4753   38.3531 H   0  0  0  0  0  0  0  0  0  0  0  0
   72.2786   40.4937   39.7796 H   0  0  0  0  0  0  0  0  0  0  0  0
   74.5631   37.1050   39.3736 H   0  0  0  0  0  0  0  0  0  0  0  0
   74.7693   38.1775   37.9785 H   0  0  0  0  0  0  0  0  0  0  0  0
   75.4715   38.7737   40.8911 H   0  0  0  0  0  0  0  0  0  0  0  0
   76.6419   38.4688   39.6144 H   0  0  0  0  0  0  0  0  0  0  0  0
  1  2  1  0  0  0  0
  1 21  1  0  0  0  0
  1 22  1  0  0  0  0
  2  3  1  0  0  0  0
  2 12  2  0  0  0  0
  3  9  2  0  0  0  0
  3  4  1  0  0  0  0
  4  5  2  0  0  0  0
  4  6  1  0  0  0  0
  6  7  1  0  0  0  0
 13  6  1  0  0  0  0
  7  8  2  0  0  0  0
  7  9  1  0  0  0  0
  9 10  1  0  0  0  0
 10 23  1  0  0  0  0
 10 11  2  0  0  0  0
 11 12  1  0  0  0  0
 11 24  1  0  0  0  0
 12 25  1  0  0  0  0
 13 26  1  0  0  0  0
 13 14  1  0  0  0  0
 13 20  1  0  0  0  0
 14 15  2  0  0  0  0
 14 16  1  0  0  0  0
 16 27  1  0  0  0  0
 16 17  1  0  0  0  0
 17 18  2  0  0  0  0
 17 19  1  0  0  0  0
 19 28  1  0  0  0  0
 19 29  1  0  0  0  0
 19 20  1  0  0  0  0
 20 30  1  0  0  0  0
 20 31  1  0  0  0  0
M  ZZC   1 n1
M  ZZC   2 c1
M  ZZC   3 c2
M  ZZC   4 c3
M  ZZC   5 o1
M  ZZC   6 n2
M  ZZC   7 c4
M  ZZC   8 o2
M  ZZC   9 c5
M  ZZC  10 c6
M  ZZC  11 c7
M  ZZC  12 c8
M  ZZC  13 c9
M  ZZC  14 c10
M  ZZC  15 o3
M  ZZC  16 n3
M  ZZC  17 c11
M  ZZC  18 o4
M  ZZC  19 c12
M  ZZC  20 c13
M  ZZC  21 h11
M  ZZC  22 h12
M  ZZC  23 h61
M  ZZC  24 h71
M  ZZC  25 h81
M  ZZC  26 h91
M  ZZC  27 h31
M  ZZC  28 h121
M  ZZC  29 h122
M  ZZC  30 h131
M  ZZC  31 h132
M  ZZM   1 40
M  ZZI   1 224
M  ZZM   2 37
M  ZZI   2 124
M  ZZM   3 37
M  ZZI   3 124
M  ZZM   4 3
M  ZZI   4 121
M  ZZM   5 7
M  ZZI   5 81
M  ZZM   6 10
M  ZZI   6 192
M  ZZM   7 3
M  ZZI   7 121
M  ZZM   8 7
M  ZZI   8 81
M  ZZM   9 37
M  ZZI   9 124
M  ZZM  10 37
M  ZZI  10 125
M  ZZM  11 37
M  ZZI  11 125
M  ZZM  12 37
M  ZZI  12 125
M  ZZM  13 1
M  ZZI  13 113
M  ZZM  14 3
M  ZZI  14 121
M  ZZM  15 7
M  ZZI  15 81
M  ZZM  16 10
M  ZZI  16 191
M  ZZM  17 3
M  ZZI  17 121
M  ZZM  18 7
M  ZZI  18 81
M  ZZM  19 1
M  ZZI  19 112
M  ZZM  20 1
M  ZZI  20 112
M  ZZM  21 28
M  ZZI  21 11
M  ZZM  22 28
M  ZZI  22 11
M  ZZM  23 5
M  ZZI  23 1
M  ZZM  24 5
M  ZZI  24 1
M  ZZM  25 5
M  ZZI  25 1
M  ZZM  26 5
M  ZZI  26 1
M  ZZM  27 28
M  ZZI  27 11
M  ZZM  28 5
M  ZZI  28 1
M  ZZM  29 5
M  ZZI  29 1
M  ZZM  30 5
M  ZZI  30 1
M  ZZM  31 5
M  ZZI  31 1
M  END
> <IX>
1

> <NAME>
Cereblon_5TOB_10.pdb

> <Score>
-18.410343

> <Natom>
31

> <Nflex>
1

> <Hbond>
-3.704772

> <Hphob>
-3.571247

> <VwInt>
-24.275009

> <Dsolv>
15.218319

> <SolEl>
6.96437

> <Eintl>
1.700418

> <RecConf>
ND

> <projPath>
Cereblon_maps/

> <NAME_>
Cereblon_5TOB_10.pdb

$$$$
