Cereblon_4IPF_13.pdb
  MOLSOFT 04032206233D

 30 32  0  0  1  0  0  0  0  0999 V2000
   76.0491   42.8335   38.6281 C   0  0  0  0  0  0  0  0  0  0  0  0
   74.9749   42.0499   38.2410 C   0  0  0  0  0  0  0  0  0  0  0  0
   74.7331   40.8606   38.8677 C   0  0  0  0  0  0  0  0  0  0  0  0
   73.5663   40.2378   38.2393 C   0  0  0  0  0  0  0  0  0  0  0  0
   73.1250   39.1445   38.5616 O   0  0  0  0  0  0  0  0  0  0  0  0
   73.1220   41.1117   37.2629 N   0  0  0  0  0  0  0  0  0  0  0  0
   71.9698   40.8323   36.3859 C   0  0  1  0  0  0  0  0  0  0  0  0
   70.6467   41.0160   37.1271 C   0  0  0  0  0  0  0  0  0  0  0  0
   70.2020   40.2154   37.9354 O   0  0  0  0  0  0  0  0  0  0  0  0
   69.9497   42.1667   36.8773 N   0  0  0  0  0  0  0  0  0  0  0  0
   70.2344   43.1815   36.0150 C   0  0  0  0  0  0  0  0  0  0  0  0
   69.5140   44.1625   35.9691 O   0  0  0  0  0  0  0  0  0  0  0  0
   71.4851   43.0401   35.1912 C   0  0  0  0  0  0  0  0  0  0  0  0
   71.9291   41.5889   35.0552 C   0  0  0  0  0  0  0  0  0  0  0  0
   73.9673   42.2913   37.1770 C   0  0  0  0  0  0  0  0  0  0  0  0
   75.5112   40.3810   39.9046 C   0  0  0  0  0  0  0  0  0  0  0  0
   76.5718   41.1747   40.3147 C   0  0  0  0  0  0  0  0  0  0  0  0
   76.8361   42.3861   39.6808 C   0  0  0  0  0  0  0  0  0  0  0  0
   76.2786   43.7701   38.1297 H   0  0  0  0  0  0  0  0  0  0  0  0
   72.0263   39.7631   36.1528 H   0  0  0  0  0  0  0  0  0  0  0  0
   69.0820   42.2724   37.3863 H   0  0  0  0  0  0  0  0  0  0  0  0
   71.2757   43.4428   34.1974 H   0  0  0  0  0  0  0  0  0  0  0  0
   72.2581   43.6700   35.6354 H   0  0  0  0  0  0  0  0  0  0  0  0
   71.2137   41.0827   34.3964 H   0  0  0  0  0  0  0  0  0  0  0  0
   72.8968   41.5392   34.5478 H   0  0  0  0  0  0  0  0  0  0  0  0
   73.3802   43.1870   37.3865 H   0  0  0  0  0  0  0  0  0  0  0  0
   74.4401   42.3407   36.1912 H   0  0  0  0  0  0  0  0  0  0  0  0
   75.3032   39.4262   40.3768 H   0  0  0  0  0  0  0  0  0  0  0  0
   77.2101   40.8445   41.1286 H   0  0  0  0  0  0  0  0  0  0  0  0
   77.6790   42.9861   40.0104 H   0  0  0  0  0  0  0  0  0  0  0  0
  1 19  1  0  0  0  0
  1 18  2  0  0  0  0
  1  2  1  0  0  0  0
  2  3  2  0  0  0  0
  2 15  1  0  0  0  0
  3 16  1  0  0  0  0
  3  4  1  0  0  0  0
  4  6  1  0  0  0  0
  4  5  2  0  0  0  0
  6 15  1  0  0  0  0
  7  6  1  0  0  0  0
  7 20  1  0  0  0  0
  7  8  1  0  0  0  0
  7 14  1  0  0  0  0
  8  9  2  0  0  0  0
  8 10  1  0  0  0  0
 10 21  1  0  0  0  0
 10 11  1  0  0  0  0
 11 12  2  0  0  0  0
 11 13  1  0  0  0  0
 13 22  1  0  0  0  0
 13 23  1  0  0  0  0
 13 14  1  0  0  0  0
 14 24  1  0  0  0  0
 14 25  1  0  0  0  0
 15 26  1  0  0  0  0
 15 27  1  0  0  0  0
 16 17  2  0  0  0  0
 16 28  1  0  0  0  0
 17 18  1  0  0  0  0
 17 29  1  0  0  0  0
 18 30  1  0  0  0  0
M  ZZC   1 c1
M  ZZC   2 c2
M  ZZC   3 c3
M  ZZC   4 c4
M  ZZC   5 o1
M  ZZC   6 n1
M  ZZC   7 c5
M  ZZC   8 c6
M  ZZC   9 o2
M  ZZC  10 n2
M  ZZC  11 c7
M  ZZC  12 o3
M  ZZC  13 c8
M  ZZC  14 c9
M  ZZC  15 c10
M  ZZC  16 c11
M  ZZC  17 c12
M  ZZC  18 c13
M  ZZC  19 h11
M  ZZC  20 h51
M  ZZC  21 h21
M  ZZC  22 h81
M  ZZC  23 h82
M  ZZC  24 h91
M  ZZC  25 h92
M  ZZC  26 h101
M  ZZC  27 h102
M  ZZC  28 h111
M  ZZC  29 h121
M  ZZC  30 h131
M  ZZM   1 37
M  ZZI   1 125
M  ZZM   2 37
M  ZZI   2 124
M  ZZM   3 37
M  ZZI   3 124
M  ZZM   4 3
M  ZZI   4 121
M  ZZM   5 7
M  ZZI   5 81
M  ZZM   6 10
M  ZZI   6 192
M  ZZM   7 1
M  ZZI   7 113
M  ZZM   8 3
M  ZZI   8 121
M  ZZM   9 7
M  ZZI   9 81
M  ZZM  10 10
M  ZZI  10 191
M  ZZM  11 3
M  ZZI  11 121
M  ZZM  12 7
M  ZZI  12 81
M  ZZM  13 1
M  ZZI  13 112
M  ZZM  14 1
M  ZZI  14 112
M  ZZM  15 1
M  ZZI  15 112
M  ZZM  16 37
M  ZZI  16 125
M  ZZM  17 37
M  ZZI  17 125
M  ZZM  18 37
M  ZZI  18 125
M  ZZM  19 5
M  ZZI  19 1
M  ZZM  20 5
M  ZZI  20 1
M  ZZM  21 28
M  ZZI  21 11
M  ZZM  22 5
M  ZZI  22 1
M  ZZM  23 5
M  ZZI  23 1
M  ZZM  24 5
M  ZZI  24 1
M  ZZM  25 5
M  ZZI  25 1
M  ZZM  26 5
M  ZZI  26 1
M  ZZM  27 5
M  ZZI  27 1
M  ZZM  28 5
M  ZZI  28 1
M  ZZM  29 5
M  ZZI  29 1
M  ZZM  30 5
M  ZZI  30 1
M  END
> <IX>
1

> <NAME>
Cereblon_4IPF_13.pdb

> <Score>
-14.532428

> <Natom>
30

> <Nflex>
1

> <Hbond>
-4.271803

> <Hphob>
-3.905719

> <VwInt>
-21.933555

> <Dsolv>
12.60433

> <SolEl>
11.440679

> <Eintl>
5.369207

> <RecConf>
ND

> <projPath>
Cereblon_maps/

> <NAME_>
Cereblon_4IPF_13.pdb

$$$$
