Cereblon_5P9J_2.pdb
  MOLSOFT 04032206263D

 29 31  0  0  1  0  0  0  0  0999 V2000
   79.0046   42.4902   42.6730 C   0  0  0  0  0  0  0  0  0  0  0  0
   78.1859   42.1951   41.5970 C   0  0  0  0  0  0  0  0  0  0  0  0
   77.2681   41.0776   41.4112 C   0  0  0  0  0  0  0  0  0  0  0  0
   77.0877   40.2168   42.2588 O   0  0  0  0  0  0  0  0  0  0  0  0
   76.7271   41.2208   40.1469 N   0  0  0  0  0  0  0  0  0  0  0  0
   77.2234   42.3476   39.5237 C   0  0  0  0  0  0  0  0  0  0  0  0
   76.9877   42.7659   38.3976 O   0  0  0  0  0  0  0  0  0  0  0  0
   78.1590   42.9583   40.4684 C   0  0  0  0  0  0  0  0  0  0  0  0
   78.9580   44.0744   40.3264 C   0  0  0  0  0  0  0  0  0  0  0  0
   79.8000   44.3840   41.3886 C   0  0  0  0  0  0  0  0  0  0  0  0
   79.8235   43.6058   42.5467 C   0  0  0  0  0  0  0  0  0  0  0  0
   75.7190   40.3659   39.5137 C   0  0  2  0  0  0  0  0  0  0  0  0
   74.3386   40.9337   39.8033 C   0  0  0  0  0  0  0  0  0  0  0  0
   74.1503   42.1198   40.0178 O   0  0  0  0  0  0  0  0  0  0  0  0
   73.2888   40.0509   39.7278 N   0  0  0  0  0  0  0  0  0  0  0  0
   73.3284   38.7056   39.4545 C   0  0  0  0  0  0  0  0  0  0  0  0
   72.3136   38.0306   39.3963 O   0  0  0  0  0  0  0  0  0  0  0  0
   74.6931   38.1255   39.1765 C   0  0  0  0  0  0  0  0  0  0  0  0
   75.7746   38.8950   39.9141 C   0  0  0  0  0  0  0  0  0  0  0  0
   79.0157   41.8753   43.5687 H   0  0  0  0  0  0  0  0  0  0  0  0
   78.9270   44.6764   39.4259 H   0  0  0  0  0  0  0  0  0  0  0  0
   80.4479   45.2502   41.3194 H   0  0  0  0  0  0  0  0  0  0  0  0
   80.4901   43.8744   43.3614 H   0  0  0  0  0  0  0  0  0  0  0  0
   75.8580   40.4550   38.4343 H   0  0  0  0  0  0  0  0  0  0  0  0
   72.3702   40.4440   39.8916 H   0  0  0  0  0  0  0  0  0  0  0  0
   74.6997   37.0798   39.4995 H   0  0  0  0  0  0  0  0  0  0  0  0
   74.8541   38.1496   38.0943 H   0  0  0  0  0  0  0  0  0  0  0  0
   75.6116   38.7747   40.9887 H   0  0  0  0  0  0  0  0  0  0  0  0
   76.7599   38.4736   39.6910 H   0  0  0  0  0  0  0  0  0  0  0  0
  1 20  1  0  0  0  0
  1  2  1  0  0  0  0
  1 11  2  0  0  0  0
  2  3  1  0  0  0  0
  2  8  2  0  0  0  0
  3  4  2  0  0  0  0
  3  5  1  0  0  0  0
  5  6  1  0  0  0  0
 12  5  1  0  0  0  0
  6  7  2  0  0  0  0
  6  8  1  0  0  0  0
  8  9  1  0  0  0  0
  9 21  1  0  0  0  0
  9 10  2  0  0  0  0
 10 22  1  0  0  0  0
 10 11  1  0  0  0  0
 11 23  1  0  0  0  0
 12 24  1  0  0  0  0
 12 13  1  0  0  0  0
 12 19  1  0  0  0  0
 13 14  2  0  0  0  0
 13 15  1  0  0  0  0
 15 25  1  0  0  0  0
 15 16  1  0  0  0  0
 16 17  2  0  0  0  0
 16 18  1  0  0  0  0
 18 26  1  0  0  0  0
 18 27  1  0  0  0  0
 18 19  1  0  0  0  0
 19 28  1  0  0  0  0
 19 29  1  0  0  0  0
M  ZZC   1 c1
M  ZZC   2 c2
M  ZZC   3 c3
M  ZZC   4 o1
M  ZZC   5 n1
M  ZZC   6 c4
M  ZZC   7 o2
M  ZZC   8 c5
M  ZZC   9 c6
M  ZZC  10 c7
M  ZZC  11 c8
M  ZZC  12 c9
M  ZZC  13 c10
M  ZZC  14 o3
M  ZZC  15 n2
M  ZZC  16 c11
M  ZZC  17 o4
M  ZZC  18 c12
M  ZZC  19 c13
M  ZZC  20 h11
M  ZZC  21 h61
M  ZZC  22 h71
M  ZZC  23 h81
M  ZZC  24 h91
M  ZZC  25 h21
M  ZZC  26 h121
M  ZZC  27 h122
M  ZZC  28 h131
M  ZZC  29 h132
M  ZZM   1 37
M  ZZI   1 125
M  ZZM   2 37
M  ZZI   2 124
M  ZZM   3 3
M  ZZI   3 121
M  ZZM   4 7
M  ZZI   4 81
M  ZZM   5 10
M  ZZI   5 192
M  ZZM   6 3
M  ZZI   6 121
M  ZZM   7 7
M  ZZI   7 81
M  ZZM   8 37
M  ZZI   8 124
M  ZZM   9 37
M  ZZI   9 125
M  ZZM  10 37
M  ZZI  10 125
M  ZZM  11 37
M  ZZI  11 125
M  ZZM  12 1
M  ZZI  12 113
M  ZZM  13 3
M  ZZI  13 121
M  ZZM  14 7
M  ZZI  14 81
M  ZZM  15 10
M  ZZI  15 191
M  ZZM  16 3
M  ZZI  16 121
M  ZZM  17 7
M  ZZI  17 81
M  ZZM  18 1
M  ZZI  18 112
M  ZZM  19 1
M  ZZI  19 112
M  ZZM  20 5
M  ZZI  20 1
M  ZZM  21 5
M  ZZI  21 1
M  ZZM  22 5
M  ZZI  22 1
M  ZZM  23 5
M  ZZI  23 1
M  ZZM  24 5
M  ZZI  24 1
M  ZZM  25 28
M  ZZI  25 11
M  ZZM  26 5
M  ZZI  26 1
M  ZZM  27 5
M  ZZI  27 1
M  ZZM  28 5
M  ZZI  28 1
M  ZZM  29 5
M  ZZI  29 1
M  END
> <IX>
1

> <NAME>
Cereblon_5P9J_2.pdb

> <Score>
-19.386883

> <Natom>
29

> <Nflex>
1

> <Hbond>
-3.3665

> <Hphob>
-3.517269

> <VwInt>
-22.697545

> <Dsolv>
12.004796

> <SolEl>
5.606507

> <Eintl>
1.467644

> <RecConf>
ND

> <projPath>
Cereblon_maps/

> <NAME_>
Cereblon_5P9J_2.pdb

$$$$
