Cereblon_5J8O_26.pdb
  MOLSOFT 04032206253D

 31 33  0  0  1  0  0  0  0  0999 V2000
   78.8146   41.6817   43.8084 N   0  0  0  0  0  0  0  0  0  0  0  0
   78.8930   42.4355   42.6276 C   0  0  0  0  0  0  0  0  0  0  0  0
   78.0924   42.1623   41.5314 C   0  0  0  0  0  0  0  0  0  0  0  0
   77.1737   41.0494   41.3262 C   0  0  0  0  0  0  0  0  0  0  0  0
   76.9957   40.1650   42.1507 O   0  0  0  0  0  0  0  0  0  0  0  0
   76.6346   41.2129   40.0652 N   0  0  0  0  0  0  0  0  0  0  0  0
   77.1584   42.3311   39.4480 C   0  0  0  0  0  0  0  0  0  0  0  0
   76.9514   42.7454   38.3148 O   0  0  0  0  0  0  0  0  0  0  0  0
   78.0894   42.9295   40.4063 C   0  0  0  0  0  0  0  0  0  0  0  0
   78.9067   44.0342   40.2801 C   0  0  0  0  0  0  0  0  0  0  0  0
   79.7288   44.3324   41.3610 C   0  0  0  0  0  0  0  0  0  0  0  0
   79.7141   43.5541   42.5201 C   0  0  0  0  0  0  0  0  0  0  0  0
   75.6163   40.3750   39.4281 C   0  0  2  0  0  0  0  0  0  0  0  0
   74.2455   40.9555   39.7300 C   0  0  0  0  0  0  0  0  0  0  0  0
   74.0769   42.1348   39.9922 O   0  0  0  0  0  0  0  0  0  0  0  0
   73.1835   40.0931   39.6065 N   0  0  0  0  0  0  0  0  0  0  0  0
   73.2080   38.7556   39.2926 C   0  0  0  0  0  0  0  0  0  0  0  0
   72.1818   38.1069   39.1708 O   0  0  0  0  0  0  0  0  0  0  0  0
   74.5718   38.1501   39.0580 C   0  0  0  0  0  0  0  0  0  0  0  0
   75.6479   38.9017   39.8218 C   0  0  0  0  0  0  0  0  0  0  0  0
   79.5276   41.7862   44.5273 H   0  0  0  0  0  0  0  0  0  0  0  0
   78.2751   40.8144   43.7945 H   0  0  0  0  0  0  0  0  0  0  0  0
   78.9007   44.6393   39.3812 H   0  0  0  0  0  0  0  0  0  0  0  0
   80.3856   45.1937   41.3097 H   0  0  0  0  0  0  0  0  0  0  0  0
   80.3552   43.8301   43.3518 H   0  0  0  0  0  0  0  0  0  0  0  0
   75.7533   40.4735   38.3500 H   0  0  0  0  0  0  0  0  0  0  0  0
   72.2682   40.4972   39.7615 H   0  0  0  0  0  0  0  0  0  0  0  0
   74.5507   37.1048   39.3823 H   0  0  0  0  0  0  0  0  0  0  0  0
   74.7683   38.1664   37.9814 H   0  0  0  0  0  0  0  0  0  0  0  0
   75.4609   38.7775   40.8924 H   0  0  0  0  0  0  0  0  0  0  0  0
   76.6330   38.4708   39.6156 H   0  0  0  0  0  0  0  0  0  0  0  0
  1  2  1  0  0  0  0
  1 21  1  0  0  0  0
  1 22  1  0  0  0  0
  2  3  1  0  0  0  0
  2 12  2  0  0  0  0
  3  9  2  0  0  0  0
  3  4  1  0  0  0  0
  4  5  2  0  0  0  0
  4  6  1  0  0  0  0
  6  7  1  0  0  0  0
 13  6  1  0  0  0  0
  7  8  2  0  0  0  0
  7  9  1  0  0  0  0
  9 10  1  0  0  0  0
 10 23  1  0  0  0  0
 10 11  2  0  0  0  0
 11 12  1  0  0  0  0
 11 24  1  0  0  0  0
 12 25  1  0  0  0  0
 13 26  1  0  0  0  0
 13 14  1  0  0  0  0
 13 20  1  0  0  0  0
 14 15  2  0  0  0  0
 14 16  1  0  0  0  0
 16 27  1  0  0  0  0
 16 17  1  0  0  0  0
 17 18  2  0  0  0  0
 17 19  1  0  0  0  0
 19 28  1  0  0  0  0
 19 29  1  0  0  0  0
 19 20  1  0  0  0  0
 20 30  1  0  0  0  0
 20 31  1  0  0  0  0
M  ZZC   1 n1
M  ZZC   2 c1
M  ZZC   3 c2
M  ZZC   4 c3
M  ZZC   5 o1
M  ZZC   6 n2
M  ZZC   7 c4
M  ZZC   8 o2
M  ZZC   9 c5
M  ZZC  10 c6
M  ZZC  11 c7
M  ZZC  12 c8
M  ZZC  13 c9
M  ZZC  14 c10
M  ZZC  15 o3
M  ZZC  16 n3
M  ZZC  17 c11
M  ZZC  18 o4
M  ZZC  19 c12
M  ZZC  20 c13
M  ZZC  21 h11
M  ZZC  22 h12
M  ZZC  23 h61
M  ZZC  24 h71
M  ZZC  25 h81
M  ZZC  26 h91
M  ZZC  27 h31
M  ZZC  28 h121
M  ZZC  29 h122
M  ZZC  30 h131
M  ZZC  31 h132
M  ZZM   1 40
M  ZZI   1 224
M  ZZM   2 37
M  ZZI   2 124
M  ZZM   3 37
M  ZZI   3 124
M  ZZM   4 3
M  ZZI   4 121
M  ZZM   5 7
M  ZZI   5 81
M  ZZM   6 10
M  ZZI   6 192
M  ZZM   7 3
M  ZZI   7 121
M  ZZM   8 7
M  ZZI   8 81
M  ZZM   9 37
M  ZZI   9 124
M  ZZM  10 37
M  ZZI  10 125
M  ZZM  11 37
M  ZZI  11 125
M  ZZM  12 37
M  ZZI  12 125
M  ZZM  13 1
M  ZZI  13 113
M  ZZM  14 3
M  ZZI  14 121
M  ZZM  15 7
M  ZZI  15 81
M  ZZM  16 10
M  ZZI  16 191
M  ZZM  17 3
M  ZZI  17 121
M  ZZM  18 7
M  ZZI  18 81
M  ZZM  19 1
M  ZZI  19 112
M  ZZM  20 1
M  ZZI  20 112
M  ZZM  21 28
M  ZZI  21 11
M  ZZM  22 28
M  ZZI  22 11
M  ZZM  23 5
M  ZZI  23 1
M  ZZM  24 5
M  ZZI  24 1
M  ZZM  25 5
M  ZZI  25 1
M  ZZM  26 5
M  ZZI  26 1
M  ZZM  27 28
M  ZZI  27 11
M  ZZM  28 5
M  ZZI  28 1
M  ZZM  29 5
M  ZZI  29 1
M  ZZM  30 5
M  ZZI  30 1
M  ZZM  31 5
M  ZZI  31 1
M  END
> <IX>
1

> <NAME>
Cereblon_5J8O_26.pdb

> <Score>
-18.722345

> <Natom>
31

> <Nflex>
1

> <Hbond>
-3.681785

> <Hphob>
-3.552182

> <VwInt>
-24.322581

> <Dsolv>
15.091744

> <SolEl>
6.541288

> <Eintl>
1.765094

> <RecConf>
ND

> <projPath>
Cereblon_maps/

> <NAME_>
Cereblon_5J8O_26.pdb

$$$$
