Cereblon_6YBK_2.pdb
  MOLSOFT 04032206303D

 31 33  0  0  1  0  0  0  0  0999 V2000
   78.8091   41.6725   43.8173 N   0  0  0  0  0  0  0  0  0  0  0  0
   78.9029   42.4192   42.6325 C   0  0  0  0  0  0  0  0  0  0  0  0
   78.0983   42.1543   41.5371 C   0  0  0  0  0  0  0  0  0  0  0  0
   77.1789   41.0429   41.3274 C   0  0  0  0  0  0  0  0  0  0  0  0
   76.9987   40.1584   42.1512 O   0  0  0  0  0  0  0  0  0  0  0  0
   76.6417   41.2111   40.0667 N   0  0  0  0  0  0  0  0  0  0  0  0
   77.1643   42.3316   39.4537 C   0  0  0  0  0  0  0  0  0  0  0  0
   76.9542   42.7537   38.3241 O   0  0  0  0  0  0  0  0  0  0  0  0
   78.0951   42.9259   40.4147 C   0  0  0  0  0  0  0  0  0  0  0  0
   78.9080   44.0344   40.2952 C   0  0  0  0  0  0  0  0  0  0  0  0
   79.7233   44.3330   41.3808 C   0  0  0  0  0  0  0  0  0  0  0  0
   79.7100   43.5487   42.5358 C   0  0  0  0  0  0  0  0  0  0  0  0
   75.6218   40.3759   39.4289 C   0  0  2  0  0  0  0  0  0  0  0  0
   74.2512   40.9583   39.7290 C   0  0  0  0  0  0  0  0  0  0  0  0
   74.0837   42.1379   39.9905 O   0  0  0  0  0  0  0  0  0  0  0  0
   73.1879   40.0975   39.6058 N   0  0  0  0  0  0  0  0  0  0  0  0
   73.2101   38.7595   39.2937 C   0  0  0  0  0  0  0  0  0  0  0  0
   72.1836   38.1102   39.1779 O   0  0  0  0  0  0  0  0  0  0  0  0
   74.5728   38.1551   39.0512 C   0  0  0  0  0  0  0  0  0  0  0  0
   75.6493   38.9015   39.8193 C   0  0  0  0  0  0  0  0  0  0  0  0
   79.5454   41.7581   44.5144 H   0  0  0  0  0  0  0  0  0  0  0  0
   78.3093   40.7826   43.7795 H   0  0  0  0  0  0  0  0  0  0  0  0
   78.9040   44.6424   39.3982 H   0  0  0  0  0  0  0  0  0  0  0  0
   80.3720   45.2008   41.3378 H   0  0  0  0  0  0  0  0  0  0  0  0
   80.3409   43.8295   43.3737 H   0  0  0  0  0  0  0  0  0  0  0  0
   75.7597   40.4741   38.3509 H   0  0  0  0  0  0  0  0  0  0  0  0
   72.2730   40.5024   39.7600 H   0  0  0  0  0  0  0  0  0  0  0  0
   74.5514   37.1081   39.3699 H   0  0  0  0  0  0  0  0  0  0  0  0
   74.7676   38.1777   37.9745 H   0  0  0  0  0  0  0  0  0  0  0  0
   75.4580   38.7764   40.8891 H   0  0  0  0  0  0  0  0  0  0  0  0
   76.6340   38.4674   39.6180 H   0  0  0  0  0  0  0  0  0  0  0  0
  1  2  1  0  0  0  0
  1 21  1  0  0  0  0
  1 22  1  0  0  0  0
  2  3  1  0  0  0  0
  2 12  2  0  0  0  0
  3  9  2  0  0  0  0
  3  4  1  0  0  0  0
  4  5  2  0  0  0  0
  4  6  1  0  0  0  0
  6  7  1  0  0  0  0
 13  6  1  0  0  0  0
  7  8  2  0  0  0  0
  7  9  1  0  0  0  0
  9 10  1  0  0  0  0
 10 23  1  0  0  0  0
 10 11  2  0  0  0  0
 11 12  1  0  0  0  0
 11 24  1  0  0  0  0
 12 25  1  0  0  0  0
 13 26  1  0  0  0  0
 13 14  1  0  0  0  0
 13 20  1  0  0  0  0
 14 15  2  0  0  0  0
 14 16  1  0  0  0  0
 16 27  1  0  0  0  0
 16 17  1  0  0  0  0
 17 18  2  0  0  0  0
 17 19  1  0  0  0  0
 19 28  1  0  0  0  0
 19 29  1  0  0  0  0
 19 20  1  0  0  0  0
 20 30  1  0  0  0  0
 20 31  1  0  0  0  0
M  ZZC   1 n1
M  ZZC   2 c1
M  ZZC   3 c2
M  ZZC   4 c3
M  ZZC   5 o1
M  ZZC   6 n2
M  ZZC   7 c4
M  ZZC   8 o2
M  ZZC   9 c5
M  ZZC  10 c6
M  ZZC  11 c7
M  ZZC  12 c8
M  ZZC  13 c9
M  ZZC  14 c10
M  ZZC  15 o3
M  ZZC  16 n3
M  ZZC  17 c11
M  ZZC  18 o4
M  ZZC  19 c12
M  ZZC  20 c13
M  ZZC  21 h11
M  ZZC  22 h12
M  ZZC  23 h61
M  ZZC  24 h71
M  ZZC  25 h81
M  ZZC  26 h91
M  ZZC  27 h31
M  ZZC  28 h121
M  ZZC  29 h122
M  ZZC  30 h131
M  ZZC  31 h132
M  ZZM   1 40
M  ZZI   1 224
M  ZZM   2 37
M  ZZI   2 124
M  ZZM   3 37
M  ZZI   3 124
M  ZZM   4 3
M  ZZI   4 121
M  ZZM   5 7
M  ZZI   5 81
M  ZZM   6 10
M  ZZI   6 192
M  ZZM   7 3
M  ZZI   7 121
M  ZZM   8 7
M  ZZI   8 81
M  ZZM   9 37
M  ZZI   9 124
M  ZZM  10 37
M  ZZI  10 125
M  ZZM  11 37
M  ZZI  11 125
M  ZZM  12 37
M  ZZI  12 125
M  ZZM  13 1
M  ZZI  13 113
M  ZZM  14 3
M  ZZI  14 121
M  ZZM  15 7
M  ZZI  15 81
M  ZZM  16 10
M  ZZI  16 191
M  ZZM  17 3
M  ZZI  17 121
M  ZZM  18 7
M  ZZI  18 81
M  ZZM  19 1
M  ZZI  19 112
M  ZZM  20 1
M  ZZI  20 112
M  ZZM  21 28
M  ZZI  21 11
M  ZZM  22 28
M  ZZI  22 11
M  ZZM  23 5
M  ZZI  23 1
M  ZZM  24 5
M  ZZI  24 1
M  ZZM  25 5
M  ZZI  25 1
M  ZZM  26 5
M  ZZI  26 1
M  ZZM  27 28
M  ZZI  27 11
M  ZZM  28 5
M  ZZI  28 1
M  ZZM  29 5
M  ZZI  29 1
M  ZZM  30 5
M  ZZI  30 1
M  ZZM  31 5
M  ZZI  31 1
M  END
> <IX>
1

> <NAME>
Cereblon_6YBK_2.pdb

> <Score>
-18.404423

> <Natom>
31

> <Nflex>
1

> <Hbond>
-3.707342

> <Hphob>
-3.559264

> <VwInt>
-24.257551

> <Dsolv>
15.257354

> <SolEl>
6.875137

> <Eintl>
1.728007

> <RecConf>
ND

> <projPath>
Cereblon_maps/

> <NAME_>
Cereblon_6YBK_2.pdb

$$$$
