Cereblon_5TOB_8.pdb
  MOLSOFT 04032206273D

 31 33  0  0  1  0  0  0  0  0999 V2000
   77.6221   41.8814   41.9273 N   0  0  0  0  0  0  0  0  0  0  0  0
   77.2751   40.5771   41.5440 C   0  0  0  0  0  0  0  0  0  0  0  0
   76.3456   40.2948   40.5497 C   0  0  0  0  0  0  0  0  0  0  0  0
   75.4395   41.1738   39.8022 C   0  0  0  0  0  0  0  0  0  0  0  0
   75.2895   42.3652   40.0236 O   0  0  0  0  0  0  0  0  0  0  0  0
   74.7871   40.3810   38.8835 N   0  0  0  0  0  0  0  0  0  0  0  0
   75.1028   39.0559   39.0758 C   0  0  0  0  0  0  0  0  0  0  0  0
   74.6369   38.0642   38.5340 O   0  0  0  0  0  0  0  0  0  0  0  0
   76.1194   39.0192   40.1212 C   0  0  0  0  0  0  0  0  0  0  0  0
   76.7834   37.9267   40.6440 C   0  0  0  0  0  0  0  0  0  0  0  0
   77.7049   38.1812   41.6482 C   0  0  0  0  0  0  0  0  0  0  0  0
   77.9480   39.4835   42.0806 C   0  0  0  0  0  0  0  0  0  0  0  0
   73.7499   40.8329   37.9523 C   0  0  2  0  0  0  0  0  0  0  0  0
   74.1762   42.0731   37.1698 C   0  0  0  0  0  0  0  0  0  0  0  0
   75.3436   42.3474   36.9301 O   0  0  0  0  0  0  0  0  0  0  0  0
   73.1485   42.8407   36.6710 N   0  0  0  0  0  0  0  0  0  0  0  0
   71.7930   42.6550   36.8053 C   0  0  0  0  0  0  0  0  0  0  0  0
   70.9846   43.3993   36.2718 O   0  0  0  0  0  0  0  0  0  0  0  0
   71.3665   41.4501   37.6097 C   0  0  0  0  0  0  0  0  0  0  0  0
   72.4140   41.0604   38.6421 C   0  0  0  0  0  0  0  0  0  0  0  0
   78.1355   42.0245   42.7945 H   0  0  0  0  0  0  0  0  0  0  0  0
   77.1116   42.6743   41.5365 H   0  0  0  0  0  0  0  0  0  0  0  0
   76.5904   36.9178   40.2913 H   0  0  0  0  0  0  0  0  0  0  0  0
   78.2541   37.3587   42.0963 H   0  0  0  0  0  0  0  0  0  0  0  0
   78.6892   39.6451   42.8568 H   0  0  0  0  0  0  0  0  0  0  0  0
   73.6149   40.0349   37.2130 H   0  0  0  0  0  0  0  0  0  0  0  0
   73.4227   43.6509   36.1335 H   0  0  0  0  0  0  0  0  0  0  0  0
   70.4238   41.6866   38.1115 H   0  0  0  0  0  0  0  0  0  0  0  0
   71.1804   40.6256   36.9135 H   0  0  0  0  0  0  0  0  0  0  0  0
   72.5079   41.8375   39.4074 H   0  0  0  0  0  0  0  0  0  0  0  0
   72.0947   40.1535   39.1660 H   0  0  0  0  0  0  0  0  0  0  0  0
  1  2  1  0  0  0  0
  1 21  1  0  0  0  0
  1 22  1  0  0  0  0
  2  3  1  0  0  0  0
  2 12  2  0  0  0  0
  3  9  2  0  0  0  0
  3  4  1  0  0  0  0
  4  5  2  0  0  0  0
  4  6  1  0  0  0  0
  6  7  1  0  0  0  0
 13  6  1  0  0  0  0
  7  8  2  0  0  0  0
  7  9  1  0  0  0  0
  9 10  1  0  0  0  0
 10 23  1  0  0  0  0
 10 11  2  0  0  0  0
 11 12  1  0  0  0  0
 11 24  1  0  0  0  0
 12 25  1  0  0  0  0
 13 26  1  0  0  0  0
 13 14  1  0  0  0  0
 13 20  1  0  0  0  0
 14 15  2  0  0  0  0
 14 16  1  0  0  0  0
 16 27  1  0  0  0  0
 16 17  1  0  0  0  0
 17 18  2  0  0  0  0
 17 19  1  0  0  0  0
 19 28  1  0  0  0  0
 19 29  1  0  0  0  0
 19 20  1  0  0  0  0
 20 30  1  0  0  0  0
 20 31  1  0  0  0  0
M  ZZC   1 n1
M  ZZC   2 c1
M  ZZC   3 c2
M  ZZC   4 c3
M  ZZC   5 o1
M  ZZC   6 n2
M  ZZC   7 c4
M  ZZC   8 o2
M  ZZC   9 c5
M  ZZC  10 c6
M  ZZC  11 c7
M  ZZC  12 c8
M  ZZC  13 c9
M  ZZC  14 c10
M  ZZC  15 o3
M  ZZC  16 n3
M  ZZC  17 c11
M  ZZC  18 o4
M  ZZC  19 c12
M  ZZC  20 c13
M  ZZC  21 h11
M  ZZC  22 h12
M  ZZC  23 h61
M  ZZC  24 h71
M  ZZC  25 h81
M  ZZC  26 h91
M  ZZC  27 h31
M  ZZC  28 h121
M  ZZC  29 h122
M  ZZC  30 h131
M  ZZC  31 h132
M  ZZM   1 40
M  ZZI   1 224
M  ZZM   2 37
M  ZZI   2 124
M  ZZM   3 37
M  ZZI   3 124
M  ZZM   4 3
M  ZZI   4 121
M  ZZM   5 7
M  ZZI   5 81
M  ZZM   6 10
M  ZZI   6 192
M  ZZM   7 3
M  ZZI   7 121
M  ZZM   8 7
M  ZZI   8 81
M  ZZM   9 37
M  ZZI   9 124
M  ZZM  10 37
M  ZZI  10 125
M  ZZM  11 37
M  ZZI  11 125
M  ZZM  12 37
M  ZZI  12 125
M  ZZM  13 1
M  ZZI  13 113
M  ZZM  14 3
M  ZZI  14 121
M  ZZM  15 7
M  ZZI  15 81
M  ZZM  16 10
M  ZZI  16 191
M  ZZM  17 3
M  ZZI  17 121
M  ZZM  18 7
M  ZZI  18 81
M  ZZM  19 1
M  ZZI  19 112
M  ZZM  20 1
M  ZZI  20 112
M  ZZM  21 28
M  ZZI  21 11
M  ZZM  22 28
M  ZZI  22 11
M  ZZM  23 5
M  ZZI  23 1
M  ZZM  24 5
M  ZZI  24 1
M  ZZM  25 5
M  ZZI  25 1
M  ZZM  26 5
M  ZZI  26 1
M  ZZM  27 28
M  ZZI  27 11
M  ZZM  28 5
M  ZZI  28 1
M  ZZM  29 5
M  ZZI  29 1
M  ZZM  30 5
M  ZZI  30 1
M  ZZM  31 5
M  ZZI  31 1
M  END
> <IX>
1

> <NAME>
Cereblon_5TOB_8.pdb

> <Score>
-15.225738

> <Natom>
31

> <Nflex>
1

> <Hbond>
-4.141294

> <Hphob>
-3.585146

> <VwInt>
-23.15371

> <Dsolv>
17.349071

> <SolEl>
7.929629

> <Eintl>
3.270228

> <RecConf>
ND

> <projPath>
Cereblon_maps/

> <NAME_>
Cereblon_5TOB_8.pdb

$$$$
