Cereblon_4QNQ_30.pdb
  MOLSOFT 04032206233D

 31 33  0  0  1  0  0  0  0  0999 V2000
   78.0649   40.6333   42.6442 N   0  0  0  0  0  0  0  0  0  0  0  0
   78.1180   41.7223   41.7590 C   0  0  0  0  0  0  0  0  0  0  0  0
   77.2908   41.8159   40.6484 C   0  0  0  0  0  0  0  0  0  0  0  0
   76.2220   40.9271   40.1986 C   0  0  0  0  0  0  0  0  0  0  0  0
   75.9722   39.8410   40.7023 O   0  0  0  0  0  0  0  0  0  0  0  0
   75.6004   41.5574   39.1365 N   0  0  0  0  0  0  0  0  0  0  0  0
   76.3283   42.6654   38.7521 C   0  0  0  0  0  0  0  0  0  0  0  0
   76.2270   43.3632   37.7543 O   0  0  0  0  0  0  0  0  0  0  0  0
   77.3655   42.8505   39.7667 C   0  0  0  0  0  0  0  0  0  0  0  0
   78.3069   43.8553   39.8939 C   0  0  0  0  0  0  0  0  0  0  0  0
   79.1750   43.7708   40.9746 C   0  0  0  0  0  0  0  0  0  0  0  0
   79.0782   42.7233   41.8923 C   0  0  0  0  0  0  0  0  0  0  0  0
   74.3514   41.0447   38.5442 C   0  0  1  0  0  0  0  0  0  0  0  0
   73.2173   41.3221   39.5221 C   0  0  0  0  0  0  0  0  0  0  0  0
   73.3991   41.6106   40.6925 O   0  0  0  0  0  0  0  0  0  0  0  0
   71.9455   41.1746   39.0293 N   0  0  0  0  0  0  0  0  0  0  0  0
   71.5624   40.9317   37.7359 C   0  0  0  0  0  0  0  0  0  0  0  0
   70.3989   40.6861   37.4562 O   0  0  0  0  0  0  0  0  0  0  0  0
   72.6743   40.9303   36.7071 C   0  0  0  0  0  0  0  0  0  0  0  0
   73.9155   41.6559   37.2121 C   0  0  0  0  0  0  0  0  0  0  0  0
   78.6426   40.6233   43.4836 H   0  0  0  0  0  0  0  0  0  0  0  0
   77.2675   39.9977   42.5892 H   0  0  0  0  0  0  0  0  0  0  0  0
   78.3644   44.6725   39.1834 H   0  0  0  0  0  0  0  0  0  0  0  0
   79.9329   44.5355   41.1133 H   0  0  0  0  0  0  0  0  0  0  0  0
   79.7686   42.6932   42.7293 H   0  0  0  0  0  0  0  0  0  0  0  0
   74.4485   39.9554   38.4651 H   0  0  0  0  0  0  0  0  0  0  0  0
   71.1971   41.2732   39.7029 H   0  0  0  0  0  0  0  0  0  0  0  0
   72.9090   39.8894   36.4608 H   0  0  0  0  0  0  0  0  0  0  0  0
   72.3073   41.4188   35.7986 H   0  0  0  0  0  0  0  0  0  0  0  0
   74.7066   41.5960   36.4633 H   0  0  0  0  0  0  0  0  0  0  0  0
   73.6861   42.7210   37.3352 H   0  0  0  0  0  0  0  0  0  0  0  0
  1  2  1  0  0  0  0
  1 21  1  0  0  0  0
  1 22  1  0  0  0  0
  2  3  1  0  0  0  0
  2 12  2  0  0  0  0
  3  9  2  0  0  0  0
  3  4  1  0  0  0  0
  4  5  2  0  0  0  0
  4  6  1  0  0  0  0
  6  7  1  0  0  0  0
 13  6  1  0  0  0  0
  7  8  2  0  0  0  0
  7  9  1  0  0  0  0
  9 10  1  0  0  0  0
 10 23  1  0  0  0  0
 10 11  2  0  0  0  0
 11 12  1  0  0  0  0
 11 24  1  0  0  0  0
 12 25  1  0  0  0  0
 13 26  1  0  0  0  0
 13 14  1  0  0  0  0
 13 20  1  0  0  0  0
 14 15  2  0  0  0  0
 14 16  1  0  0  0  0
 16 27  1  0  0  0  0
 16 17  1  0  0  0  0
 17 18  2  0  0  0  0
 17 19  1  0  0  0  0
 19 28  1  0  0  0  0
 19 29  1  0  0  0  0
 19 20  1  0  0  0  0
 20 30  1  0  0  0  0
 20 31  1  0  0  0  0
M  ZZC   1 n1
M  ZZC   2 c1
M  ZZC   3 c2
M  ZZC   4 c3
M  ZZC   5 o1
M  ZZC   6 n2
M  ZZC   7 c4
M  ZZC   8 o2
M  ZZC   9 c5
M  ZZC  10 c6
M  ZZC  11 c7
M  ZZC  12 c8
M  ZZC  13 c9
M  ZZC  14 c10
M  ZZC  15 o3
M  ZZC  16 n3
M  ZZC  17 c11
M  ZZC  18 o4
M  ZZC  19 c12
M  ZZC  20 c13
M  ZZC  21 h11
M  ZZC  22 h12
M  ZZC  23 h61
M  ZZC  24 h71
M  ZZC  25 h81
M  ZZC  26 h91
M  ZZC  27 h31
M  ZZC  28 h121
M  ZZC  29 h122
M  ZZC  30 h131
M  ZZC  31 h132
M  ZZM   1 40
M  ZZI   1 224
M  ZZM   2 37
M  ZZI   2 124
M  ZZM   3 37
M  ZZI   3 124
M  ZZM   4 3
M  ZZI   4 121
M  ZZM   5 7
M  ZZI   5 81
M  ZZM   6 10
M  ZZI   6 192
M  ZZM   7 3
M  ZZI   7 121
M  ZZM   8 7
M  ZZI   8 81
M  ZZM   9 37
M  ZZI   9 124
M  ZZM  10 37
M  ZZI  10 125
M  ZZM  11 37
M  ZZI  11 125
M  ZZM  12 37
M  ZZI  12 125
M  ZZM  13 1
M  ZZI  13 113
M  ZZM  14 3
M  ZZI  14 121
M  ZZM  15 7
M  ZZI  15 81
M  ZZM  16 10
M  ZZI  16 191
M  ZZM  17 3
M  ZZI  17 121
M  ZZM  18 7
M  ZZI  18 81
M  ZZM  19 1
M  ZZI  19 112
M  ZZM  20 1
M  ZZI  20 112
M  ZZM  21 28
M  ZZI  21 11
M  ZZM  22 28
M  ZZI  22 11
M  ZZM  23 5
M  ZZI  23 1
M  ZZM  24 5
M  ZZI  24 1
M  ZZM  25 5
M  ZZI  25 1
M  ZZM  26 5
M  ZZI  26 1
M  ZZM  27 28
M  ZZI  27 11
M  ZZM  28 5
M  ZZI  28 1
M  ZZM  29 5
M  ZZI  29 1
M  ZZM  30 5
M  ZZI  30 1
M  ZZM  31 5
M  ZZI  31 1
M  END
> <IX>
1

> <NAME>
Cereblon_4QNQ_30.pdb

> <Score>
-14.91157

> <Natom>
31

> <Nflex>
1

> <Hbond>
-2.765368

> <Hphob>
-3.678589

> <VwInt>
-27.01678

> <Dsolv>
17.225476

> <SolEl>
6.805966

> <Eintl>
5.925333

> <RecConf>
ND

> <projPath>
Cereblon_maps/

> <NAME_>
Cereblon_4QNQ_30.pdb

$$$$
