Cereblon_5P9J_11.pdb
  MOLSOFT 04032206263D

 36 38  0  0  1  0  0  0  0  0999 V2000
   76.6322   42.3276   38.0213 O   0  0  0  0  0  0  0  0  0  0  0  0
   76.9701   42.3152   39.1970 C   0  0  0  0  0  0  0  0  0  0  0  0
   76.7577   41.2862   40.1032 N   0  0  0  0  0  0  0  0  0  0  0  0
   76.0053   40.1199   39.8276 C   0  0  0  0  0  0  0  0  0  0  0  0
   74.8818   40.0649   39.0052 C   0  0  0  0  0  0  0  0  0  0  0  0
   74.0179   41.1177   38.4642 C   0  0  0  0  0  0  0  0  0  0  0  0
   74.0318   42.2734   38.8631 O   0  0  0  0  0  0  0  0  0  0  0  0
   73.1530   40.4985   37.5781 N   0  0  0  0  0  0  0  0  0  0  0  0
   73.2763   39.1286   37.6671 C   0  0  0  0  0  0  0  0  0  0  0  0
   72.6478   38.2518   37.0916 O   0  0  0  0  0  0  0  0  0  0  0  0
   74.3472   38.8703   38.6248 C   0  0  0  0  0  0  0  0  0  0  0  0
   74.8030   37.6589   39.1083 C   0  0  0  0  0  0  0  0  0  0  0  0
   75.8427   37.7034   40.0268 C   0  0  0  0  0  0  0  0  0  0  0  0
   76.4345   38.9152   40.3820 C   0  0  0  0  0  0  0  0  0  0  0  0
   72.1312   41.1380   36.7375 C   0  0  1  0  0  0  0  0  0  0  0  0
   70.7965   41.2174   37.4773 C   0  0  0  0  0  0  0  0  0  0  0  0
   70.4002   40.3760   38.2695 O   0  0  0  0  0  0  0  0  0  0  0  0
   69.9657   42.2446   37.1135 N   0  0  0  0  0  0  0  0  0  0  0  0
   70.1597   43.2088   36.1686 C   0  0  0  0  0  0  0  0  0  0  0  0
   69.3220   44.0767   35.9967 O   0  0  0  0  0  0  0  0  0  0  0  0
   71.4219   43.1016   35.3564 C   0  0  0  0  0  0  0  0  0  0  0  0
   72.5451   42.5026   36.1836 C   0  0  0  0  0  0  0  0  0  0  0  0
   77.7567   43.4449   39.7982 C   0  0  0  0  0  0  0  0  0  0  0  0
   77.3885   41.2479   40.8961 H   0  0  0  0  0  0  0  0  0  0  0  0
   74.3604   36.7177   38.7932 H   0  0  0  0  0  0  0  0  0  0  0  0
   76.2231   36.7778   40.4485 H   0  0  0  0  0  0  0  0  0  0  0  0
   77.2824   38.9002   41.0604 H   0  0  0  0  0  0  0  0  0  0  0  0
   71.9510   40.4644   35.8913 H   0  0  0  0  0  0  0  0  0  0  0  0
   69.0751   42.2925   37.5901 H   0  0  0  0  0  0  0  0  0  0  0  0
   71.2138   42.4946   34.4689 H   0  0  0  0  0  0  0  0  0  0  0  0
   71.6946   44.1077   35.0299 H   0  0  0  0  0  0  0  0  0  0  0  0
   72.7895   43.2023   36.9865 H   0  0  0  0  0  0  0  0  0  0  0  0
   73.4480   42.4027   35.5728 H   0  0  0  0  0  0  0  0  0  0  0  0
   77.8764   44.2224   39.0476 H   0  0  0  0  0  0  0  0  0  0  0  0
   78.7439   43.0915   40.1091 H   0  0  0  0  0  0  0  0  0  0  0  0
   77.2352   43.8655   40.6629 H   0  0  0  0  0  0  0  0  0  0  0  0
  1  2  2  0  0  0  0
  2  3  1  0  0  0  0
  2 23  1  0  0  0  0
  3  4  1  0  0  0  0
  3 24  1  0  0  0  0
  4  5  1  0  0  0  0
  4 14  2  0  0  0  0
  5 11  2  0  0  0  0
  5  6  1  0  0  0  0
  6  7  2  0  0  0  0
  6  8  1  0  0  0  0
  8  9  1  0  0  0  0
 15  8  1  0  0  0  0
  9 10  2  0  0  0  0
  9 11  1  0  0  0  0
 11 12  1  0  0  0  0
 12 25  1  0  0  0  0
 12 13  2  0  0  0  0
 13 14  1  0  0  0  0
 13 26  1  0  0  0  0
 14 27  1  0  0  0  0
 15 28  1  0  0  0  0
 15 16  1  0  0  0  0
 15 22  1  0  0  0  0
 16 17  2  0  0  0  0
 16 18  1  0  0  0  0
 18 29  1  0  0  0  0
 18 19  1  0  0  0  0
 19 20  2  0  0  0  0
 19 21  1  0  0  0  0
 21 30  1  0  0  0  0
 21 31  1  0  0  0  0
 21 22  1  0  0  0  0
 22 32  1  0  0  0  0
 22 33  1  0  0  0  0
 23 34  1  0  0  0  0
 23 35  1  0  0  0  0
 23 36  1  0  0  0  0
M  ZZC   1 o1
M  ZZC   2 c1
M  ZZC   3 n1
M  ZZC   4 c2
M  ZZC   5 c3
M  ZZC   6 c4
M  ZZC   7 o2
M  ZZC   8 n2
M  ZZC   9 c5
M  ZZC  10 o3
M  ZZC  11 c6
M  ZZC  12 c7
M  ZZC  13 c8
M  ZZC  14 c9
M  ZZC  15 c10
M  ZZC  16 c11
M  ZZC  17 o4
M  ZZC  18 n3
M  ZZC  19 c12
M  ZZC  20 o5
M  ZZC  21 c13
M  ZZC  22 c14
M  ZZC  23 c15
M  ZZC  24 h11
M  ZZC  25 h71
M  ZZC  26 h81
M  ZZC  27 h91
M  ZZC  28 h101
M  ZZC  29 h31
M  ZZC  30 h131
M  ZZC  31 h132
M  ZZC  32 h141
M  ZZC  33 h142
M  ZZC  34 h151
M  ZZC  35 h152
M  ZZC  36 h153
M  ZZM   1 7
M  ZZI   1 81
M  ZZM   2 3
M  ZZI   2 121
M  ZZM   3 10
M  ZZI   3 191
M  ZZM   4 37
M  ZZI   4 124
M  ZZM   5 37
M  ZZI   5 124
M  ZZM   6 3
M  ZZI   6 121
M  ZZM   7 7
M  ZZI   7 81
M  ZZM   8 10
M  ZZI   8 192
M  ZZM   9 3
M  ZZI   9 121
M  ZZM  10 7
M  ZZI  10 81
M  ZZM  11 37
M  ZZI  11 124
M  ZZM  12 37
M  ZZI  12 125
M  ZZM  13 37
M  ZZI  13 125
M  ZZM  14 37
M  ZZI  14 125
M  ZZM  15 1
M  ZZI  15 113
M  ZZM  16 3
M  ZZI  16 121
M  ZZM  17 7
M  ZZI  17 81
M  ZZM  18 10
M  ZZI  18 191
M  ZZM  19 3
M  ZZI  19 121
M  ZZM  20 7
M  ZZI  20 81
M  ZZM  21 1
M  ZZI  21 112
M  ZZM  22 1
M  ZZI  22 112
M  ZZM  23 1
M  ZZI  23 111
M  ZZM  24 28
M  ZZI  24 11
M  ZZM  25 5
M  ZZI  25 1
M  ZZM  26 5
M  ZZI  26 1
M  ZZM  27 5
M  ZZI  27 1
M  ZZM  28 5
M  ZZI  28 1
M  ZZM  29 28
M  ZZI  29 11
M  ZZM  30 5
M  ZZI  30 1
M  ZZM  31 5
M  ZZI  31 1
M  ZZM  32 5
M  ZZI  32 1
M  ZZM  33 5
M  ZZI  33 1
M  ZZM  34 5
M  ZZI  34 1
M  ZZM  35 5
M  ZZI  35 1
M  ZZM  36 5
M  ZZI  36 1
M  END
> <IX>
1

> <NAME>
Cereblon_5P9J_11.pdb

> <Score>
-22.721365

> <Natom>
36

> <Nflex>
1

> <Hbond>
-7.795004

> <Hphob>
-4.102889

> <VwInt>
-25.149193

> <Dsolv>
15.317134

> <SolEl>
8.041742

> <Eintl>
12.504541

> <RecConf>
ND

> <projPath>
Cereblon_maps/

> <NAME_>
Cereblon_5P9J_11.pdb

$$$$
