Cereblon_5V9O_4.pdb
  MOLSOFT 04032206273D

 30 32  0  0  1  0  0  0  0  0999 V2000
   77.5998   41.0757   42.0856 C   0  0  0  0  0  0  0  0  0  0  0  0
   76.9668   41.1401   40.8550 C   0  0  0  0  0  0  0  0  0  0  0  0
   77.2622   42.1474   39.9761 C   0  0  0  0  0  0  0  0  0  0  0  0
   76.4119   41.9832   38.7912 C   0  0  0  0  0  0  0  0  0  0  0  0
   76.4476   42.6997   37.8007 O   0  0  0  0  0  0  0  0  0  0  0  0
   75.5731   40.9141   39.0493 N   0  0  0  0  0  0  0  0  0  0  0  0
   74.2665   40.7555   38.3911 C   0  0  2  0  0  0  0  0  0  0  0  0
   73.2426   41.5306   39.2037 C   0  0  0  0  0  0  0  0  0  0  0  0
   73.5621   42.3825   40.0165 O   0  0  0  0  0  0  0  0  0  0  0  0
   71.9247   41.2508   38.9347 N   0  0  0  0  0  0  0  0  0  0  0  0
   71.4164   40.2415   38.1531 C   0  0  0  0  0  0  0  0  0  0  0  0
   70.2143   40.1270   37.9631 O   0  0  0  0  0  0  0  0  0  0  0  0
   72.4380   39.3235   37.5135 C   0  0  0  0  0  0  0  0  0  0  0  0
   73.7630   39.3219   38.2679 C   0  0  0  0  0  0  0  0  0  0  0  0
   75.9215   40.2491   40.2906 C   0  0  0  0  0  0  0  0  0  0  0  0
   78.1885   43.1391   40.2518 C   0  0  0  0  0  0  0  0  0  0  0  0
   78.8348   43.0728   41.4796 C   0  0  0  0  0  0  0  0  0  0  0  0
   78.5341   42.0583   42.3882 C   0  0  0  0  0  0  0  0  0  0  0  0
   77.3686   40.2924   42.8013 H   0  0  0  0  0  0  0  0  0  0  0  0
   74.3172   41.2423   37.4097 H   0  0  0  0  0  0  0  0  0  0  0  0
   71.2502   41.8576   39.3838 H   0  0  0  0  0  0  0  0  0  0  0  0
   72.0261   38.3097   37.4877 H   0  0  0  0  0  0  0  0  0  0  0  0
   72.5865   39.6540   36.4797 H   0  0  0  0  0  0  0  0  0  0  0  0
   73.6196   38.8779   39.2600 H   0  0  0  0  0  0  0  0  0  0  0  0
   74.4889   38.6924   37.7460 H   0  0  0  0  0  0  0  0  0  0  0  0
   76.3024   39.2459   40.0711 H   0  0  0  0  0  0  0  0  0  0  0  0
   75.0478   40.2047   40.9364 H   0  0  0  0  0  0  0  0  0  0  0  0
   78.3970   43.9370   39.5467 H   0  0  0  0  0  0  0  0  0  0  0  0
   79.5647   43.8318   41.7428 H   0  0  0  0  0  0  0  0  0  0  0  0
   79.0375   42.0352   43.3500 H   0  0  0  0  0  0  0  0  0  0  0  0
  1 19  1  0  0  0  0
  1 18  2  0  0  0  0
  1  2  1  0  0  0  0
  2  3  2  0  0  0  0
  2 15  1  0  0  0  0
  3 16  1  0  0  0  0
  3  4  1  0  0  0  0
  4  6  1  0  0  0  0
  4  5  2  0  0  0  0
  6 15  1  0  0  0  0
  7  6  1  0  0  0  0
  7 20  1  0  0  0  0
  7  8  1  0  0  0  0
  7 14  1  0  0  0  0
  8  9  2  0  0  0  0
  8 10  1  0  0  0  0
 10 21  1  0  0  0  0
 10 11  1  0  0  0  0
 11 12  2  0  0  0  0
 11 13  1  0  0  0  0
 13 22  1  0  0  0  0
 13 23  1  0  0  0  0
 13 14  1  0  0  0  0
 14 24  1  0  0  0  0
 14 25  1  0  0  0  0
 15 26  1  0  0  0  0
 15 27  1  0  0  0  0
 16 17  2  0  0  0  0
 16 28  1  0  0  0  0
 17 18  1  0  0  0  0
 17 29  1  0  0  0  0
 18 30  1  0  0  0  0
M  ZZC   1 c1
M  ZZC   2 c2
M  ZZC   3 c3
M  ZZC   4 c4
M  ZZC   5 o1
M  ZZC   6 n1
M  ZZC   7 c5
M  ZZC   8 c6
M  ZZC   9 o2
M  ZZC  10 n2
M  ZZC  11 c7
M  ZZC  12 o3
M  ZZC  13 c8
M  ZZC  14 c9
M  ZZC  15 c10
M  ZZC  16 c11
M  ZZC  17 c12
M  ZZC  18 c13
M  ZZC  19 h11
M  ZZC  20 h51
M  ZZC  21 h21
M  ZZC  22 h81
M  ZZC  23 h82
M  ZZC  24 h91
M  ZZC  25 h92
M  ZZC  26 h101
M  ZZC  27 h102
M  ZZC  28 h111
M  ZZC  29 h121
M  ZZC  30 h131
M  ZZM   1 37
M  ZZI   1 125
M  ZZM   2 37
M  ZZI   2 124
M  ZZM   3 37
M  ZZI   3 124
M  ZZM   4 3
M  ZZI   4 121
M  ZZM   5 7
M  ZZI   5 81
M  ZZM   6 10
M  ZZI   6 192
M  ZZM   7 1
M  ZZI   7 113
M  ZZM   8 3
M  ZZI   8 121
M  ZZM   9 7
M  ZZI   9 81
M  ZZM  10 10
M  ZZI  10 191
M  ZZM  11 3
M  ZZI  11 121
M  ZZM  12 7
M  ZZI  12 81
M  ZZM  13 1
M  ZZI  13 112
M  ZZM  14 1
M  ZZI  14 112
M  ZZM  15 1
M  ZZI  15 112
M  ZZM  16 37
M  ZZI  16 125
M  ZZM  17 37
M  ZZI  17 125
M  ZZM  18 37
M  ZZI  18 125
M  ZZM  19 5
M  ZZI  19 1
M  ZZM  20 5
M  ZZI  20 1
M  ZZM  21 28
M  ZZI  21 11
M  ZZM  22 5
M  ZZI  22 1
M  ZZM  23 5
M  ZZI  23 1
M  ZZM  24 5
M  ZZI  24 1
M  ZZM  25 5
M  ZZI  25 1
M  ZZM  26 5
M  ZZI  26 1
M  ZZM  27 5
M  ZZI  27 1
M  ZZM  28 5
M  ZZI  28 1
M  ZZM  29 5
M  ZZI  29 1
M  ZZM  30 5
M  ZZI  30 1
M  END
> <IX>
1

> <NAME>
Cereblon_5V9O_4.pdb

> <Score>
-15.736429

> <Natom>
30

> <Nflex>
1

> <Hbond>
-4.234909

> <Hphob>
-3.670123

> <VwInt>
-19.399619

> <Dsolv>
13.921679

> <SolEl>
5.082932

> <Eintl>
4.067497

> <RecConf>
ND

> <projPath>
Cereblon_maps/

> <NAME_>
Cereblon_5V9O_4.pdb

$$$$
