Cereblon_5G0I_19.pdb
  MOLSOFT 04032206243D

 31 33  0  0  1  0  0  0  0  0999 V2000
   78.8170   41.6869   43.8150 N   0  0  0  0  0  0  0  0  0  0  0  0
   78.9041   42.4332   42.6297 C   0  0  0  0  0  0  0  0  0  0  0  0
   78.1003   42.1629   41.5353 C   0  0  0  0  0  0  0  0  0  0  0  0
   77.1783   41.0529   41.3315 C   0  0  0  0  0  0  0  0  0  0  0  0
   76.9919   40.1745   42.1602 O   0  0  0  0  0  0  0  0  0  0  0  0
   76.6471   41.2121   40.0669 N   0  0  0  0  0  0  0  0  0  0  0  0
   77.1680   42.3317   39.4509 C   0  0  0  0  0  0  0  0  0  0  0  0
   76.9542   42.7527   38.3215 O   0  0  0  0  0  0  0  0  0  0  0  0
   78.0984   42.9293   40.4095 C   0  0  0  0  0  0  0  0  0  0  0  0
   78.9094   44.0385   40.2859 C   0  0  0  0  0  0  0  0  0  0  0  0
   79.7269   44.3402   41.3689 C   0  0  0  0  0  0  0  0  0  0  0  0
   79.7132   43.5610   42.5276 C   0  0  0  0  0  0  0  0  0  0  0  0
   75.6263   40.3750   39.4330 C   0  0  2  0  0  0  0  0  0  0  0  0
   74.2551   40.9527   39.7400 C   0  0  0  0  0  0  0  0  0  0  0  0
   74.0847   42.1331   39.9949 O   0  0  0  0  0  0  0  0  0  0  0  0
   73.1951   40.0859   39.6311 N   0  0  0  0  0  0  0  0  0  0  0  0
   73.2203   38.7478   39.3203 C   0  0  0  0  0  0  0  0  0  0  0  0
   72.1958   38.0935   39.2175 O   0  0  0  0  0  0  0  0  0  0  0  0
   74.5832   38.1512   39.0617 C   0  0  0  0  0  0  0  0  0  0  0  0
   75.6622   38.9010   39.8228 C   0  0  0  0  0  0  0  0  0  0  0  0
   79.5388   41.7875   44.5255 H   0  0  0  0  0  0  0  0  0  0  0  0
   78.3037   40.8042   43.7893 H   0  0  0  0  0  0  0  0  0  0  0  0
   78.9015   44.6439   39.3872 H   0  0  0  0  0  0  0  0  0  0  0  0
   80.3773   45.2064   41.3207 H   0  0  0  0  0  0  0  0  0  0  0  0
   80.3477   43.8429   43.3624 H   0  0  0  0  0  0  0  0  0  0  0  0
   75.7584   40.4737   38.3543 H   0  0  0  0  0  0  0  0  0  0  0  0
   72.2799   40.4868   39.7947 H   0  0  0  0  0  0  0  0  0  0  0  0
   74.5707   37.1031   39.3772 H   0  0  0  0  0  0  0  0  0  0  0  0
   74.7677   38.1783   37.9832 H   0  0  0  0  0  0  0  0  0  0  0  0
   75.4799   38.7729   40.8938 H   0  0  0  0  0  0  0  0  0  0  0  0
   76.6466   38.4708   39.6126 H   0  0  0  0  0  0  0  0  0  0  0  0
  1  2  1  0  0  0  0
  1 21  1  0  0  0  0
  1 22  1  0  0  0  0
  2  3  1  0  0  0  0
  2 12  2  0  0  0  0
  3  9  2  0  0  0  0
  3  4  1  0  0  0  0
  4  5  2  0  0  0  0
  4  6  1  0  0  0  0
  6  7  1  0  0  0  0
 13  6  1  0  0  0  0
  7  8  2  0  0  0  0
  7  9  1  0  0  0  0
  9 10  1  0  0  0  0
 10 23  1  0  0  0  0
 10 11  2  0  0  0  0
 11 12  1  0  0  0  0
 11 24  1  0  0  0  0
 12 25  1  0  0  0  0
 13 26  1  0  0  0  0
 13 14  1  0  0  0  0
 13 20  1  0  0  0  0
 14 15  2  0  0  0  0
 14 16  1  0  0  0  0
 16 27  1  0  0  0  0
 16 17  1  0  0  0  0
 17 18  2  0  0  0  0
 17 19  1  0  0  0  0
 19 28  1  0  0  0  0
 19 29  1  0  0  0  0
 19 20  1  0  0  0  0
 20 30  1  0  0  0  0
 20 31  1  0  0  0  0
M  ZZC   1 n1
M  ZZC   2 c1
M  ZZC   3 c2
M  ZZC   4 c3
M  ZZC   5 o1
M  ZZC   6 n2
M  ZZC   7 c4
M  ZZC   8 o2
M  ZZC   9 c5
M  ZZC  10 c6
M  ZZC  11 c7
M  ZZC  12 c8
M  ZZC  13 c9
M  ZZC  14 c10
M  ZZC  15 o3
M  ZZC  16 n3
M  ZZC  17 c11
M  ZZC  18 o4
M  ZZC  19 c12
M  ZZC  20 c13
M  ZZC  21 h11
M  ZZC  22 h12
M  ZZC  23 h61
M  ZZC  24 h71
M  ZZC  25 h81
M  ZZC  26 h91
M  ZZC  27 h31
M  ZZC  28 h121
M  ZZC  29 h122
M  ZZC  30 h131
M  ZZC  31 h132
M  ZZM   1 40
M  ZZI   1 224
M  ZZM   2 37
M  ZZI   2 124
M  ZZM   3 37
M  ZZI   3 124
M  ZZM   4 3
M  ZZI   4 121
M  ZZM   5 7
M  ZZI   5 81
M  ZZM   6 10
M  ZZI   6 192
M  ZZM   7 3
M  ZZI   7 121
M  ZZM   8 7
M  ZZI   8 81
M  ZZM   9 37
M  ZZI   9 124
M  ZZM  10 37
M  ZZI  10 125
M  ZZM  11 37
M  ZZI  11 125
M  ZZM  12 37
M  ZZI  12 125
M  ZZM  13 1
M  ZZI  13 113
M  ZZM  14 3
M  ZZI  14 121
M  ZZM  15 7
M  ZZI  15 81
M  ZZM  16 10
M  ZZI  16 191
M  ZZM  17 3
M  ZZI  17 121
M  ZZM  18 7
M  ZZI  18 81
M  ZZM  19 1
M  ZZI  19 112
M  ZZM  20 1
M  ZZI  20 112
M  ZZM  21 28
M  ZZI  21 11
M  ZZM  22 28
M  ZZI  22 11
M  ZZM  23 5
M  ZZI  23 1
M  ZZM  24 5
M  ZZI  24 1
M  ZZM  25 5
M  ZZI  25 1
M  ZZM  26 5
M  ZZI  26 1
M  ZZM  27 28
M  ZZI  27 11
M  ZZM  28 5
M  ZZI  28 1
M  ZZM  29 5
M  ZZI  29 1
M  ZZM  30 5
M  ZZI  30 1
M  ZZM  31 5
M  ZZI  31 1
M  END
> <IX>
1

> <NAME>
Cereblon_5G0I_19.pdb

> <Score>
-18.440167

> <Natom>
31

> <Nflex>
1

> <Hbond>
-3.608274

> <Hphob>
-3.581677

> <VwInt>
-24.330451

> <Dsolv>
15.128577

> <SolEl>
6.805794

> <Eintl>
1.634474

> <RecConf>
ND

> <projPath>
Cereblon_maps/

> <NAME_>
Cereblon_5G0I_19.pdb

$$$$
