Cereblon_6NUQ_23.pdb
  MOLSOFT 04032206293D

 30 32  0  0  1  0  0  0  0  0999 V2000
   75.6823   37.9160   39.7460 C   0  0  0  0  0  0  0  0  0  0  0  0
   74.9864   39.0149   39.2702 C   0  0  0  0  0  0  0  0  0  0  0  0
   75.3004   40.2671   39.7172 C   0  0  0  0  0  0  0  0  0  0  0  0
   74.4127   41.2256   39.0583 C   0  0  0  0  0  0  0  0  0  0  0  0
   74.4180   42.4209   39.3100 O   0  0  0  0  0  0  0  0  0  0  0  0
   73.6344   40.5038   38.1655 N   0  0  0  0  0  0  0  0  0  0  0  0
   72.6015   41.0267   37.2557 C   0  0  1  0  0  0  0  0  0  0  0  0
   71.2800   41.2550   37.9888 C   0  0  0  0  0  0  0  0  0  0  0  0
   70.9169   40.5809   38.9419 O   0  0  0  0  0  0  0  0  0  0  0  0
   70.4477   42.2098   37.4505 N   0  0  0  0  0  0  0  0  0  0  0  0
   70.6581   43.0308   36.3749 C   0  0  0  0  0  0  0  0  0  0  0  0
   69.8578   43.9040   36.0757 O   0  0  0  0  0  0  0  0  0  0  0  0
   71.9158   42.7616   35.5896 C   0  0  0  0  0  0  0  0  0  0  0  0
   73.0336   42.2845   36.5020 C   0  0  0  0  0  0  0  0  0  0  0  0
   73.8767   39.0755   38.2820 C   0  0  0  0  0  0  0  0  0  0  0  0
   76.3081   40.5151   40.6315 C   0  0  0  0  0  0  0  0  0  0  0  0
   77.0094   39.4186   41.1098 C   0  0  0  0  0  0  0  0  0  0  0  0
   76.6982   38.1349   40.6694 C   0  0  0  0  0  0  0  0  0  0  0  0
   75.4506   36.9113   39.4064 H   0  0  0  0  0  0  0  0  0  0  0  0
   72.4085   40.2414   36.5154 H   0  0  0  0  0  0  0  0  0  0  0  0
   69.5772   42.3636   37.9379 H   0  0  0  0  0  0  0  0  0  0  0  0
   71.6908   42.0200   34.8155 H   0  0  0  0  0  0  0  0  0  0  0  0
   72.2133   43.6891   35.0961 H   0  0  0  0  0  0  0  0  0  0  0  0
   73.9349   42.0822   35.9145 H   0  0  0  0  0  0  0  0  0  0  0  0
   73.2884   43.0902   37.1961 H   0  0  0  0  0  0  0  0  0  0  0  0
   74.1675   38.6669   37.3086 H   0  0  0  0  0  0  0  0  0  0  0  0
   72.9750   38.5812   38.6592 H   0  0  0  0  0  0  0  0  0  0  0  0
   76.5504   41.5223   40.9548 H   0  0  0  0  0  0  0  0  0  0  0  0
   77.8084   39.5649   41.8303 H   0  0  0  0  0  0  0  0  0  0  0  0
   77.2613   37.2902   41.0533 H   0  0  0  0  0  0  0  0  0  0  0  0
  1 19  1  0  0  0  0
  1 18  2  0  0  0  0
  1  2  1  0  0  0  0
  2  3  2  0  0  0  0
  2 15  1  0  0  0  0
  3 16  1  0  0  0  0
  3  4  1  0  0  0  0
  4  6  1  0  0  0  0
  4  5  2  0  0  0  0
  6 15  1  0  0  0  0
  7  6  1  0  0  0  0
  7 20  1  0  0  0  0
  7  8  1  0  0  0  0
  7 14  1  0  0  0  0
  8  9  2  0  0  0  0
  8 10  1  0  0  0  0
 10 21  1  0  0  0  0
 10 11  1  0  0  0  0
 11 12  2  0  0  0  0
 11 13  1  0  0  0  0
 13 22  1  0  0  0  0
 13 23  1  0  0  0  0
 13 14  1  0  0  0  0
 14 24  1  0  0  0  0
 14 25  1  0  0  0  0
 15 26  1  0  0  0  0
 15 27  1  0  0  0  0
 16 17  2  0  0  0  0
 16 28  1  0  0  0  0
 17 18  1  0  0  0  0
 17 29  1  0  0  0  0
 18 30  1  0  0  0  0
M  ZZC   1 c1
M  ZZC   2 c2
M  ZZC   3 c3
M  ZZC   4 c4
M  ZZC   5 o1
M  ZZC   6 n1
M  ZZC   7 c5
M  ZZC   8 c6
M  ZZC   9 o2
M  ZZC  10 n2
M  ZZC  11 c7
M  ZZC  12 o3
M  ZZC  13 c8
M  ZZC  14 c9
M  ZZC  15 c10
M  ZZC  16 c11
M  ZZC  17 c12
M  ZZC  18 c13
M  ZZC  19 h11
M  ZZC  20 h51
M  ZZC  21 h21
M  ZZC  22 h81
M  ZZC  23 h82
M  ZZC  24 h91
M  ZZC  25 h92
M  ZZC  26 h101
M  ZZC  27 h102
M  ZZC  28 h111
M  ZZC  29 h121
M  ZZC  30 h131
M  ZZM   1 37
M  ZZI   1 125
M  ZZM   2 37
M  ZZI   2 124
M  ZZM   3 37
M  ZZI   3 124
M  ZZM   4 3
M  ZZI   4 121
M  ZZM   5 7
M  ZZI   5 81
M  ZZM   6 10
M  ZZI   6 192
M  ZZM   7 1
M  ZZI   7 113
M  ZZM   8 3
M  ZZI   8 121
M  ZZM   9 7
M  ZZI   9 81
M  ZZM  10 10
M  ZZI  10 191
M  ZZM  11 3
M  ZZI  11 121
M  ZZM  12 7
M  ZZI  12 81
M  ZZM  13 1
M  ZZI  13 112
M  ZZM  14 1
M  ZZI  14 112
M  ZZM  15 1
M  ZZI  15 112
M  ZZM  16 37
M  ZZI  16 125
M  ZZM  17 37
M  ZZI  17 125
M  ZZM  18 37
M  ZZI  18 125
M  ZZM  19 5
M  ZZI  19 1
M  ZZM  20 5
M  ZZI  20 1
M  ZZM  21 28
M  ZZI  21 11
M  ZZM  22 5
M  ZZI  22 1
M  ZZM  23 5
M  ZZI  23 1
M  ZZM  24 5
M  ZZI  24 1
M  ZZM  25 5
M  ZZI  25 1
M  ZZM  26 5
M  ZZI  26 1
M  ZZM  27 5
M  ZZI  27 1
M  ZZM  28 5
M  ZZI  28 1
M  ZZM  29 5
M  ZZI  29 1
M  ZZM  30 5
M  ZZI  30 1
M  END
> <IX>
1

> <NAME>
Cereblon_6NUQ_23.pdb

> <Score>
-20.773949

> <Natom>
30

> <Nflex>
1

> <Hbond>
-4.629125

> <Hphob>
-3.602942

> <VwInt>
-21.991885

> <Dsolv>
13.263871

> <SolEl>
5.704037

> <Eintl>
1.718374

> <RecConf>
ND

> <projPath>
Cereblon_maps/

> <NAME_>
Cereblon_6NUQ_23.pdb

$$$$
