Cereblon_5V9O_5.pdb
  MOLSOFT 04032206273D

 29 31  0  0  1  0  0  0  0  0999 V2000
   79.0046   42.4911   42.6724 C   0  0  0  0  0  0  0  0  0  0  0  0
   78.1864   42.1957   41.5963 C   0  0  0  0  0  0  0  0  0  0  0  0
   77.2693   41.0771   41.4107 C   0  0  0  0  0  0  0  0  0  0  0  0
   77.0894   40.2162   42.2583 O   0  0  0  0  0  0  0  0  0  0  0  0
   76.7288   41.2195   40.1458 N   0  0  0  0  0  0  0  0  0  0  0  0
   77.2246   42.3468   39.5229 C   0  0  0  0  0  0  0  0  0  0  0  0
   76.9888   42.7644   38.3965 O   0  0  0  0  0  0  0  0  0  0  0  0
   78.1589   42.9588   40.4679 C   0  0  0  0  0  0  0  0  0  0  0  0
   78.9571   44.0756   40.3264 C   0  0  0  0  0  0  0  0  0  0  0  0
   79.7993   44.3856   41.3884 C   0  0  0  0  0  0  0  0  0  0  0  0
   79.8231   43.6071   42.5460 C   0  0  0  0  0  0  0  0  0  0  0  0
   75.7202   40.3650   39.5127 C   0  0  2  0  0  0  0  0  0  0  0  0
   74.3407   40.9345   39.8025 C   0  0  0  0  0  0  0  0  0  0  0  0
   74.1546   42.1208   40.0172 O   0  0  0  0  0  0  0  0  0  0  0  0
   73.2897   40.0534   39.7263 N   0  0  0  0  0  0  0  0  0  0  0  0
   73.3266   38.7074   39.4558 C   0  0  0  0  0  0  0  0  0  0  0  0
   72.3106   38.0343   39.3991 O   0  0  0  0  0  0  0  0  0  0  0  0
   74.6910   38.1250   39.1793 C   0  0  0  0  0  0  0  0  0  0  0  0
   75.7738   38.8947   39.9151 C   0  0  0  0  0  0  0  0  0  0  0  0
   79.0159   41.8757   43.5677 H   0  0  0  0  0  0  0  0  0  0  0  0
   78.9264   44.6770   39.4256 H   0  0  0  0  0  0  0  0  0  0  0  0
   80.4470   45.2518   41.3186 H   0  0  0  0  0  0  0  0  0  0  0  0
   80.4902   43.8764   43.3600 H   0  0  0  0  0  0  0  0  0  0  0  0
   75.8597   40.4519   38.4331 H   0  0  0  0  0  0  0  0  0  0  0  0
   72.3714   40.4479   39.8879 H   0  0  0  0  0  0  0  0  0  0  0  0
   74.6984   37.0796   39.5040 H   0  0  0  0  0  0  0  0  0  0  0  0
   74.8521   38.1460   38.0970 H   0  0  0  0  0  0  0  0  0  0  0  0
   75.6105   38.7761   40.9899 H   0  0  0  0  0  0  0  0  0  0  0  0
   76.7593   38.4726   39.6929 H   0  0  0  0  0  0  0  0  0  0  0  0
  1 20  1  0  0  0  0
  1  2  1  0  0  0  0
  1 11  2  0  0  0  0
  2  3  1  0  0  0  0
  2  8  2  0  0  0  0
  3  4  2  0  0  0  0
  3  5  1  0  0  0  0
  5  6  1  0  0  0  0
 12  5  1  0  0  0  0
  6  7  2  0  0  0  0
  6  8  1  0  0  0  0
  8  9  1  0  0  0  0
  9 21  1  0  0  0  0
  9 10  2  0  0  0  0
 10 22  1  0  0  0  0
 10 11  1  0  0  0  0
 11 23  1  0  0  0  0
 12 24  1  0  0  0  0
 12 13  1  0  0  0  0
 12 19  1  0  0  0  0
 13 14  2  0  0  0  0
 13 15  1  0  0  0  0
 15 25  1  0  0  0  0
 15 16  1  0  0  0  0
 16 17  2  0  0  0  0
 16 18  1  0  0  0  0
 18 26  1  0  0  0  0
 18 27  1  0  0  0  0
 18 19  1  0  0  0  0
 19 28  1  0  0  0  0
 19 29  1  0  0  0  0
M  ZZC   1 c1
M  ZZC   2 c2
M  ZZC   3 c3
M  ZZC   4 o1
M  ZZC   5 n1
M  ZZC   6 c4
M  ZZC   7 o2
M  ZZC   8 c5
M  ZZC   9 c6
M  ZZC  10 c7
M  ZZC  11 c8
M  ZZC  12 c9
M  ZZC  13 c10
M  ZZC  14 o3
M  ZZC  15 n2
M  ZZC  16 c11
M  ZZC  17 o4
M  ZZC  18 c12
M  ZZC  19 c13
M  ZZC  20 h11
M  ZZC  21 h61
M  ZZC  22 h71
M  ZZC  23 h81
M  ZZC  24 h91
M  ZZC  25 h21
M  ZZC  26 h121
M  ZZC  27 h122
M  ZZC  28 h131
M  ZZC  29 h132
M  ZZM   1 37
M  ZZI   1 125
M  ZZM   2 37
M  ZZI   2 124
M  ZZM   3 3
M  ZZI   3 121
M  ZZM   4 7
M  ZZI   4 81
M  ZZM   5 10
M  ZZI   5 192
M  ZZM   6 3
M  ZZI   6 121
M  ZZM   7 7
M  ZZI   7 81
M  ZZM   8 37
M  ZZI   8 124
M  ZZM   9 37
M  ZZI   9 125
M  ZZM  10 37
M  ZZI  10 125
M  ZZM  11 37
M  ZZI  11 125
M  ZZM  12 1
M  ZZI  12 113
M  ZZM  13 3
M  ZZI  13 121
M  ZZM  14 7
M  ZZI  14 81
M  ZZM  15 10
M  ZZI  15 191
M  ZZM  16 3
M  ZZI  16 121
M  ZZM  17 7
M  ZZI  17 81
M  ZZM  18 1
M  ZZI  18 112
M  ZZM  19 1
M  ZZI  19 112
M  ZZM  20 5
M  ZZI  20 1
M  ZZM  21 5
M  ZZI  21 1
M  ZZM  22 5
M  ZZI  22 1
M  ZZM  23 5
M  ZZI  23 1
M  ZZM  24 5
M  ZZI  24 1
M  ZZM  25 28
M  ZZI  25 11
M  ZZM  26 5
M  ZZI  26 1
M  ZZM  27 5
M  ZZI  27 1
M  ZZM  28 5
M  ZZI  28 1
M  ZZM  29 5
M  ZZI  29 1
M  END
> <IX>
1

> <NAME>
Cereblon_5V9O_5.pdb

> <Score>
-19.421798

> <Natom>
29

> <Nflex>
1

> <Hbond>
-3.370717

> <Hphob>
-3.533741

> <VwInt>
-22.686402

> <Dsolv>
11.984472

> <SolEl>
5.577747

> <Eintl>
1.484094

> <RecConf>
ND

> <projPath>
Cereblon_maps/

> <NAME_>
Cereblon_5V9O_5.pdb

$$$$
