Cereblon_6GFZ_4.pdb
  MOLSOFT 04032206283D

 31 33  0  0  1  0  0  0  0  0999 V2000
   77.7188   41.7589   42.1993 N   0  0  0  0  0  0  0  0  0  0  0  0
   77.4489   40.5146   41.6069 C   0  0  0  0  0  0  0  0  0  0  0  0
   76.4713   40.3407   40.6375 C   0  0  0  0  0  0  0  0  0  0  0  0
   75.5974   41.3208   39.9975 C   0  0  0  0  0  0  0  0  0  0  0  0
   75.6437   42.5272   40.1796 O   0  0  0  0  0  0  0  0  0  0  0  0
   74.7567   40.6231   39.1608 N   0  0  0  0  0  0  0  0  0  0  0  0
   75.0715   39.2795   39.1638 C   0  0  0  0  0  0  0  0  0  0  0  0
   74.5802   38.3515   38.5385 O   0  0  0  0  0  0  0  0  0  0  0  0
   76.1598   39.1167   40.1265 C   0  0  0  0  0  0  0  0  0  0  0  0
   76.7966   37.9619   40.5385 C   0  0  0  0  0  0  0  0  0  0  0  0
   77.7569   38.1005   41.5313 C   0  0  0  0  0  0  0  0  0  0  0  0
   78.0582   39.3516   42.0685 C   0  0  0  0  0  0  0  0  0  0  0  0
   73.7228   41.3026   38.3702 C   0  0  1  0  0  0  0  0  0  0  0  0
   74.3303   41.9452   37.1291 C   0  0  0  0  0  0  0  0  0  0  0  0
   75.5094   42.2578   37.0453 O   0  0  0  0  0  0  0  0  0  0  0  0
   73.4416   42.2367   36.1216 N   0  0  0  0  0  0  0  0  0  0  0  0
   72.0899   42.0004   36.0683 C   0  0  0  0  0  0  0  0  0  0  0  0
   71.4012   42.4049   35.1447 O   0  0  0  0  0  0  0  0  0  0  0  0
   71.5005   41.2554   37.2411 C   0  0  0  0  0  0  0  0  0  0  0  0
   72.5513   40.4189   37.9507 C   0  0  0  0  0  0  0  0  0  0  0  0
   78.5346   41.8490   42.8010 H   0  0  0  0  0  0  0  0  0  0  0  0
   77.3802   42.6020   41.7310 H   0  0  0  0  0  0  0  0  0  0  0  0
   76.5432   36.9904   40.1248 H   0  0  0  0  0  0  0  0  0  0  0  0
   78.2687   37.2200   41.9081 H   0  0  0  0  0  0  0  0  0  0  0  0
   78.7882   39.4158   42.8686 H   0  0  0  0  0  0  0  0  0  0  0  0
   73.3508   42.1247   38.9881 H   0  0  0  0  0  0  0  0  0  0  0  0
   73.8301   42.7036   35.3161 H   0  0  0  0  0  0  0  0  0  0  0  0
   71.0497   41.9821   37.9236 H   0  0  0  0  0  0  0  0  0  0  0  0
   70.7043   40.6029   36.8708 H   0  0  0  0  0  0  0  0  0  0  0  0
   72.1061   39.9305   38.8244 H   0  0  0  0  0  0  0  0  0  0  0  0
   72.8866   39.6284   37.2700 H   0  0  0  0  0  0  0  0  0  0  0  0
  1  2  1  0  0  0  0
  1 21  1  0  0  0  0
  1 22  1  0  0  0  0
  2  3  1  0  0  0  0
  2 12  2  0  0  0  0
  3  9  2  0  0  0  0
  3  4  1  0  0  0  0
  4  5  2  0  0  0  0
  4  6  1  0  0  0  0
  6  7  1  0  0  0  0
 13  6  1  0  0  0  0
  7  8  2  0  0  0  0
  7  9  1  0  0  0  0
  9 10  1  0  0  0  0
 10 23  1  0  0  0  0
 10 11  2  0  0  0  0
 11 12  1  0  0  0  0
 11 24  1  0  0  0  0
 12 25  1  0  0  0  0
 13 26  1  0  0  0  0
 13 14  1  0  0  0  0
 13 20  1  0  0  0  0
 14 15  2  0  0  0  0
 14 16  1  0  0  0  0
 16 27  1  0  0  0  0
 16 17  1  0  0  0  0
 17 18  2  0  0  0  0
 17 19  1  0  0  0  0
 19 28  1  0  0  0  0
 19 29  1  0  0  0  0
 19 20  1  0  0  0  0
 20 30  1  0  0  0  0
 20 31  1  0  0  0  0
M  ZZC   1 n1
M  ZZC   2 c1
M  ZZC   3 c2
M  ZZC   4 c3
M  ZZC   5 o1
M  ZZC   6 n2
M  ZZC   7 c4
M  ZZC   8 o2
M  ZZC   9 c5
M  ZZC  10 c6
M  ZZC  11 c7
M  ZZC  12 c8
M  ZZC  13 c9
M  ZZC  14 c10
M  ZZC  15 o3
M  ZZC  16 n3
M  ZZC  17 c11
M  ZZC  18 o4
M  ZZC  19 c12
M  ZZC  20 c13
M  ZZC  21 h11
M  ZZC  22 h12
M  ZZC  23 h61
M  ZZC  24 h71
M  ZZC  25 h81
M  ZZC  26 h91
M  ZZC  27 h31
M  ZZC  28 h121
M  ZZC  29 h122
M  ZZC  30 h131
M  ZZC  31 h132
M  ZZM   1 40
M  ZZI   1 224
M  ZZM   2 37
M  ZZI   2 124
M  ZZM   3 37
M  ZZI   3 124
M  ZZM   4 3
M  ZZI   4 121
M  ZZM   5 7
M  ZZI   5 81
M  ZZM   6 10
M  ZZI   6 192
M  ZZM   7 3
M  ZZI   7 121
M  ZZM   8 7
M  ZZI   8 81
M  ZZM   9 37
M  ZZI   9 124
M  ZZM  10 37
M  ZZI  10 125
M  ZZM  11 37
M  ZZI  11 125
M  ZZM  12 37
M  ZZI  12 125
M  ZZM  13 1
M  ZZI  13 113
M  ZZM  14 3
M  ZZI  14 121
M  ZZM  15 7
M  ZZI  15 81
M  ZZM  16 10
M  ZZI  16 191
M  ZZM  17 3
M  ZZI  17 121
M  ZZM  18 7
M  ZZI  18 81
M  ZZM  19 1
M  ZZI  19 112
M  ZZM  20 1
M  ZZI  20 112
M  ZZM  21 28
M  ZZI  21 11
M  ZZM  22 28
M  ZZI  22 11
M  ZZM  23 5
M  ZZI  23 1
M  ZZM  24 5
M  ZZI  24 1
M  ZZM  25 5
M  ZZI  25 1
M  ZZM  26 5
M  ZZI  26 1
M  ZZM  27 28
M  ZZI  27 11
M  ZZM  28 5
M  ZZI  28 1
M  ZZM  29 5
M  ZZI  29 1
M  ZZM  30 5
M  ZZI  30 1
M  ZZM  31 5
M  ZZI  31 1
M  END
> <IX>
1

> <NAME>
Cereblon_6GFZ_4.pdb

> <Score>
-14.242345

> <Natom>
31

> <Nflex>
1

> <Hbond>
-3.878335

> <Hphob>
-3.51667

> <VwInt>
-23.001186

> <Dsolv>
17.380983

> <SolEl>
8.931634

> <Eintl>
2.327636

> <RecConf>
ND

> <projPath>
Cereblon_maps/

> <NAME_>
Cereblon_6GFZ_4.pdb

$$$$
