Cereblon_5L2T_7.pdb
  MOLSOFT 04032206263D

 29 31  0  0  1  0  0  0  0  0999 V2000
   79.0038   42.4900   42.6737 C   0  0  0  0  0  0  0  0  0  0  0  0
   78.1858   42.1950   41.5974 C   0  0  0  0  0  0  0  0  0  0  0  0
   77.2680   41.0772   41.4117 C   0  0  0  0  0  0  0  0  0  0  0  0
   77.0881   40.2164   42.2593 O   0  0  0  0  0  0  0  0  0  0  0  0
   76.7281   41.2193   40.1466 N   0  0  0  0  0  0  0  0  0  0  0  0
   77.2238   42.3469   39.5241 C   0  0  0  0  0  0  0  0  0  0  0  0
   76.9878   42.7653   38.3981 O   0  0  0  0  0  0  0  0  0  0  0  0
   78.1590   42.9581   40.4690 C   0  0  0  0  0  0  0  0  0  0  0  0
   78.9583   44.0740   40.3270 C   0  0  0  0  0  0  0  0  0  0  0  0
   79.7990   44.3845   41.3901 C   0  0  0  0  0  0  0  0  0  0  0  0
   79.8228   43.6057   42.5476 C   0  0  0  0  0  0  0  0  0  0  0  0
   75.7195   40.3650   39.5133 C   0  0  2  0  0  0  0  0  0  0  0  0
   74.3397   40.9342   39.8033 C   0  0  0  0  0  0  0  0  0  0  0  0
   74.1531   42.1208   40.0162 O   0  0  0  0  0  0  0  0  0  0  0  0
   73.2893   40.0523   39.7290 N   0  0  0  0  0  0  0  0  0  0  0  0
   73.3269   38.7067   39.4570 C   0  0  0  0  0  0  0  0  0  0  0  0
   72.3109   38.0334   39.4010 O   0  0  0  0  0  0  0  0  0  0  0  0
   74.6912   38.1254   39.1777 C   0  0  0  0  0  0  0  0  0  0  0  0
   75.7735   38.8943   39.9151 C   0  0  0  0  0  0  0  0  0  0  0  0
   79.0147   41.8745   43.5689 H   0  0  0  0  0  0  0  0  0  0  0  0
   78.9274   44.6759   39.4265 H   0  0  0  0  0  0  0  0  0  0  0  0
   80.4479   45.2499   41.3208 H   0  0  0  0  0  0  0  0  0  0  0  0
   80.4905   43.8739   43.3613 H   0  0  0  0  0  0  0  0  0  0  0  0
   75.8584   40.4527   38.4337 H   0  0  0  0  0  0  0  0  0  0  0  0
   72.3709   40.4460   39.8922 H   0  0  0  0  0  0  0  0  0  0  0  0
   74.6975   37.0797   39.5014 H   0  0  0  0  0  0  0  0  0  0  0  0
   74.8516   38.1481   38.0955 H   0  0  0  0  0  0  0  0  0  0  0  0
   76.7589   38.4727   39.6916 H   0  0  0  0  0  0  0  0  0  0  0  0
   75.6102   38.7761   40.9899 H   0  0  0  0  0  0  0  0  0  0  0  0
  1 20  1  0  0  0  0
  1  2  1  0  0  0  0
  1 11  2  0  0  0  0
  2  3  1  0  0  0  0
  2  8  2  0  0  0  0
  3  4  2  0  0  0  0
  3  5  1  0  0  0  0
  5  6  1  0  0  0  0
 12  5  1  0  0  0  0
  6  7  2  0  0  0  0
  6  8  1  0  0  0  0
  8  9  1  0  0  0  0
  9 21  1  0  0  0  0
  9 10  2  0  0  0  0
 10 22  1  0  0  0  0
 10 11  1  0  0  0  0
 11 23  1  0  0  0  0
 12 24  1  0  0  0  0
 12 13  1  0  0  0  0
 12 19  1  0  0  0  0
 13 14  2  0  0  0  0
 13 15  1  0  0  0  0
 15 25  1  0  0  0  0
 15 16  1  0  0  0  0
 16 17  2  0  0  0  0
 16 18  1  0  0  0  0
 18 26  1  0  0  0  0
 18 27  1  0  0  0  0
 18 19  1  0  0  0  0
 19 28  1  0  0  0  0
 19 29  1  0  0  0  0
M  ZZC   1 c1
M  ZZC   2 c2
M  ZZC   3 c3
M  ZZC   4 o1
M  ZZC   5 n1
M  ZZC   6 c4
M  ZZC   7 o2
M  ZZC   8 c5
M  ZZC   9 c6
M  ZZC  10 c7
M  ZZC  11 c8
M  ZZC  12 c9
M  ZZC  13 c10
M  ZZC  14 o3
M  ZZC  15 n2
M  ZZC  16 c11
M  ZZC  17 o4
M  ZZC  18 c12
M  ZZC  19 c13
M  ZZC  20 h11
M  ZZC  21 h61
M  ZZC  22 h71
M  ZZC  23 h81
M  ZZC  24 h91
M  ZZC  25 h21
M  ZZC  26 h121
M  ZZC  27 h122
M  ZZC  28 h131
M  ZZC  29 h132
M  ZZM   1 37
M  ZZI   1 125
M  ZZM   2 37
M  ZZI   2 124
M  ZZM   3 3
M  ZZI   3 121
M  ZZM   4 7
M  ZZI   4 81
M  ZZM   5 10
M  ZZI   5 192
M  ZZM   6 3
M  ZZI   6 121
M  ZZM   7 7
M  ZZI   7 81
M  ZZM   8 37
M  ZZI   8 124
M  ZZM   9 37
M  ZZI   9 125
M  ZZM  10 37
M  ZZI  10 125
M  ZZM  11 37
M  ZZI  11 125
M  ZZM  12 1
M  ZZI  12 113
M  ZZM  13 3
M  ZZI  13 121
M  ZZM  14 7
M  ZZI  14 81
M  ZZM  15 10
M  ZZI  15 191
M  ZZM  16 3
M  ZZI  16 121
M  ZZM  17 7
M  ZZI  17 81
M  ZZM  18 1
M  ZZI  18 112
M  ZZM  19 1
M  ZZI  19 112
M  ZZM  20 5
M  ZZI  20 1
M  ZZM  21 5
M  ZZI  21 1
M  ZZM  22 5
M  ZZI  22 1
M  ZZM  23 5
M  ZZI  23 1
M  ZZM  24 5
M  ZZI  24 1
M  ZZM  25 28
M  ZZI  25 11
M  ZZM  26 5
M  ZZI  26 1
M  ZZM  27 5
M  ZZI  27 1
M  ZZM  28 5
M  ZZI  28 1
M  ZZM  29 5
M  ZZI  29 1
M  END
> <IX>
1

> <NAME>
Cereblon_5L2T_7.pdb

> <Score>
-19.422132

> <Natom>
29

> <Nflex>
1

> <Hbond>
-3.362102

> <Hphob>
-3.506827

> <VwInt>
-22.709657

> <Dsolv>
11.973357

> <SolEl>
5.565838

> <Eintl>
1.482913

> <RecConf>
ND

> <projPath>
Cereblon_maps/

> <NAME_>
Cereblon_5L2T_7.pdb

$$$$
