Cereblon_3MXF_35.pdb
  MOLSOFT 04032206223D

 30 32  0  0  1  0  0  0  0  0999 V2000
   75.6838   37.9125   39.7457 C   0  0  0  0  0  0  0  0  0  0  0  0
   74.9864   39.0107   39.2707 C   0  0  0  0  0  0  0  0  0  0  0  0
   75.2991   40.2630   39.7188 C   0  0  0  0  0  0  0  0  0  0  0  0
   74.4090   41.2207   39.0614 C   0  0  0  0  0  0  0  0  0  0  0  0
   74.4149   42.4163   39.3119 O   0  0  0  0  0  0  0  0  0  0  0  0
   73.6300   40.4980   38.1701 N   0  0  0  0  0  0  0  0  0  0  0  0
   72.5987   41.0207   37.2585 C   0  0  1  0  0  0  0  0  0  0  0  0
   71.2789   41.2538   37.9914 C   0  0  0  0  0  0  0  0  0  0  0  0
   70.9145   40.5832   38.9465 O   0  0  0  0  0  0  0  0  0  0  0  0
   70.4482   42.2093   37.4518 N   0  0  0  0  0  0  0  0  0  0  0  0
   70.6590   43.0264   36.3729 C   0  0  0  0  0  0  0  0  0  0  0  0
   69.8598   43.8993   36.0699 O   0  0  0  0  0  0  0  0  0  0  0  0
   71.9164   42.7519   35.5870 C   0  0  0  0  0  0  0  0  0  0  0  0
   73.0335   42.2744   36.5012 C   0  0  0  0  0  0  0  0  0  0  0  0
   73.8768   39.0703   38.2827 C   0  0  0  0  0  0  0  0  0  0  0  0
   76.3070   40.5113   40.6328 C   0  0  0  0  0  0  0  0  0  0  0  0
   77.0102   39.4153   41.1103 C   0  0  0  0  0  0  0  0  0  0  0  0
   76.7003   38.1311   40.6691 C   0  0  0  0  0  0  0  0  0  0  0  0
   75.4531   36.9080   39.4049 H   0  0  0  0  0  0  0  0  0  0  0  0
   72.4032   40.2344   36.5199 H   0  0  0  0  0  0  0  0  0  0  0  0
   69.5782   42.3656   37.9391 H   0  0  0  0  0  0  0  0  0  0  0  0
   71.6890   42.0088   34.8152 H   0  0  0  0  0  0  0  0  0  0  0  0
   72.2158   43.6772   35.0904 H   0  0  0  0  0  0  0  0  0  0  0  0
   73.9337   42.0660   35.9141 H   0  0  0  0  0  0  0  0  0  0  0  0
   73.2917   43.0823   37.1916 H   0  0  0  0  0  0  0  0  0  0  0  0
   74.1694   38.6652   37.3083 H   0  0  0  0  0  0  0  0  0  0  0  0
   72.9764   38.5723   38.6584 H   0  0  0  0  0  0  0  0  0  0  0  0
   76.5480   41.5188   40.9564 H   0  0  0  0  0  0  0  0  0  0  0  0
   77.8093   39.5620   41.8305 H   0  0  0  0  0  0  0  0  0  0  0  0
   77.2642   37.2863   41.0515 H   0  0  0  0  0  0  0  0  0  0  0  0
  1 19  1  0  0  0  0
  1 18  2  0  0  0  0
  1  2  1  0  0  0  0
  2  3  2  0  0  0  0
  2 15  1  0  0  0  0
  3 16  1  0  0  0  0
  3  4  1  0  0  0  0
  4  6  1  0  0  0  0
  4  5  2  0  0  0  0
  6 15  1  0  0  0  0
  7  6  1  0  0  0  0
  7 20  1  0  0  0  0
  7  8  1  0  0  0  0
  7 14  1  0  0  0  0
  8  9  2  0  0  0  0
  8 10  1  0  0  0  0
 10 21  1  0  0  0  0
 10 11  1  0  0  0  0
 11 12  2  0  0  0  0
 11 13  1  0  0  0  0
 13 22  1  0  0  0  0
 13 23  1  0  0  0  0
 13 14  1  0  0  0  0
 14 24  1  0  0  0  0
 14 25  1  0  0  0  0
 15 26  1  0  0  0  0
 15 27  1  0  0  0  0
 16 17  2  0  0  0  0
 16 28  1  0  0  0  0
 17 18  1  0  0  0  0
 17 29  1  0  0  0  0
 18 30  1  0  0  0  0
M  ZZC   1 c1
M  ZZC   2 c2
M  ZZC   3 c3
M  ZZC   4 c4
M  ZZC   5 o1
M  ZZC   6 n1
M  ZZC   7 c5
M  ZZC   8 c6
M  ZZC   9 o2
M  ZZC  10 n2
M  ZZC  11 c7
M  ZZC  12 o3
M  ZZC  13 c8
M  ZZC  14 c9
M  ZZC  15 c10
M  ZZC  16 c11
M  ZZC  17 c12
M  ZZC  18 c13
M  ZZC  19 h11
M  ZZC  20 h51
M  ZZC  21 h21
M  ZZC  22 h81
M  ZZC  23 h82
M  ZZC  24 h91
M  ZZC  25 h92
M  ZZC  26 h101
M  ZZC  27 h102
M  ZZC  28 h111
M  ZZC  29 h121
M  ZZC  30 h131
M  ZZM   1 37
M  ZZI   1 125
M  ZZM   2 37
M  ZZI   2 124
M  ZZM   3 37
M  ZZI   3 124
M  ZZM   4 3
M  ZZI   4 121
M  ZZM   5 7
M  ZZI   5 81
M  ZZM   6 10
M  ZZI   6 192
M  ZZM   7 1
M  ZZI   7 113
M  ZZM   8 3
M  ZZI   8 121
M  ZZM   9 7
M  ZZI   9 81
M  ZZM  10 10
M  ZZI  10 191
M  ZZM  11 3
M  ZZI  11 121
M  ZZM  12 7
M  ZZI  12 81
M  ZZM  13 1
M  ZZI  13 112
M  ZZM  14 1
M  ZZI  14 112
M  ZZM  15 1
M  ZZI  15 112
M  ZZM  16 37
M  ZZI  16 125
M  ZZM  17 37
M  ZZI  17 125
M  ZZM  18 37
M  ZZI  18 125
M  ZZM  19 5
M  ZZI  19 1
M  ZZM  20 5
M  ZZI  20 1
M  ZZM  21 28
M  ZZI  21 11
M  ZZM  22 5
M  ZZI  22 1
M  ZZM  23 5
M  ZZI  23 1
M  ZZM  24 5
M  ZZI  24 1
M  ZZM  25 5
M  ZZI  25 1
M  ZZM  26 5
M  ZZI  26 1
M  ZZM  27 5
M  ZZI  27 1
M  ZZM  28 5
M  ZZI  28 1
M  ZZM  29 5
M  ZZI  29 1
M  ZZM  30 5
M  ZZI  30 1
M  END
> <IX>
1

> <NAME>
Cereblon_3MXF_35.pdb

> <Score>
-20.676492

> <Natom>
30

> <Nflex>
1

> <Hbond>
-4.625511

> <Hphob>
-3.610217

> <VwInt>
-22.007288

> <Dsolv>
13.219392

> <SolEl>
5.948476

> <Eintl>
1.686077

> <RecConf>
ND

> <projPath>
Cereblon_maps/

> <NAME_>
Cereblon_3MXF_35.pdb

$$$$
