Cereblon_7NQ8_3.pdb
  MOLSOFT 04032206303D

 30 32  0  0  1  0  0  0  0  0999 V2000
   77.8593   41.3989   42.1556 C   0  0  0  0  0  0  0  0  0  0  0  0
   77.1680   41.3933   40.9531 C   0  0  0  0  0  0  0  0  0  0  0  0
   77.4198   42.3490   40.0065 C   0  0  0  0  0  0  0  0  0  0  0  0
   76.5325   42.1053   38.8623 C   0  0  0  0  0  0  0  0  0  0  0  0
   76.5279   42.7608   37.8298 O   0  0  0  0  0  0  0  0  0  0  0  0
   75.7228   41.0377   39.2041 N   0  0  0  0  0  0  0  0  0  0  0  0
   74.4320   40.7690   38.5466 C   0  0  2  0  0  0  0  0  0  0  0  0
   73.3512   41.5463   39.2743 C   0  0  0  0  0  0  0  0  0  0  0  0
   73.6077   42.4435   40.0580 O   0  0  0  0  0  0  0  0  0  0  0  0
   72.0561   41.2103   38.9653 N   0  0  0  0  0  0  0  0  0  0  0  0
   71.6169   40.1389   38.2268 C   0  0  0  0  0  0  0  0  0  0  0  0
   70.4318   39.9872   37.9669 O   0  0  0  0  0  0  0  0  0  0  0  0
   72.6952   39.1969   37.7243 C   0  0  0  0  0  0  0  0  0  0  0  0
   73.9929   39.3107   38.5202 C   0  0  0  0  0  0  0  0  0  0  0  0
   76.1013   40.4716   40.4856 C   0  0  0  0  0  0  0  0  0  0  0  0
   78.3613   43.3502   40.1819 C   0  0  0  0  0  0  0  0  0  0  0  0
   79.0702   43.3506   41.3766 C   0  0  0  0  0  0  0  0  0  0  0  0
   78.8139   42.3898   42.3543 C   0  0  0  0  0  0  0  0  0  0  0  0
   77.6621   40.6600   42.9265 H   0  0  0  0  0  0  0  0  0  0  0  0
   74.4752   41.1870   37.5338 H   0  0  0  0  0  0  0  0  0  0  0  0
   71.3440   41.8256   39.3389 H   0  0  0  0  0  0  0  0  0  0  0  0
   72.3151   38.1722   37.7835 H   0  0  0  0  0  0  0  0  0  0  0  0
   72.8738   39.4282   36.6686 H   0  0  0  0  0  0  0  0  0  0  0  0
   73.8331   38.9400   39.5395 H   0  0  0  0  0  0  0  0  0  0  0  0
   74.7644   38.6776   38.0728 H   0  0  0  0  0  0  0  0  0  0  0  0
   76.4642   39.4484   40.3415 H   0  0  0  0  0  0  0  0  0  0  0  0
   75.2470   40.4981   41.1551 H   0  0  0  0  0  0  0  0  0  0  0  0
   78.5378   44.1039   39.4216 H   0  0  0  0  0  0  0  0  0  0  0  0
   79.8177   44.1164   41.5575 H   0  0  0  0  0  0  0  0  0  0  0  0
   79.3681   42.4154   43.2876 H   0  0  0  0  0  0  0  0  0  0  0  0
  1 19  1  0  0  0  0
  1 18  2  0  0  0  0
  1  2  1  0  0  0  0
  2  3  2  0  0  0  0
  2 15  1  0  0  0  0
  3 16  1  0  0  0  0
  3  4  1  0  0  0  0
  4  6  1  0  0  0  0
  4  5  2  0  0  0  0
  6 15  1  0  0  0  0
  7  6  1  0  0  0  0
  7 20  1  0  0  0  0
  7  8  1  0  0  0  0
  7 14  1  0  0  0  0
  8  9  2  0  0  0  0
  8 10  1  0  0  0  0
 10 21  1  0  0  0  0
 10 11  1  0  0  0  0
 11 12  2  0  0  0  0
 11 13  1  0  0  0  0
 13 22  1  0  0  0  0
 13 23  1  0  0  0  0
 13 14  1  0  0  0  0
 14 24  1  0  0  0  0
 14 25  1  0  0  0  0
 15 26  1  0  0  0  0
 15 27  1  0  0  0  0
 16 17  2  0  0  0  0
 16 28  1  0  0  0  0
 17 18  1  0  0  0  0
 17 29  1  0  0  0  0
 18 30  1  0  0  0  0
M  ZZC   1 c1
M  ZZC   2 c2
M  ZZC   3 c3
M  ZZC   4 c4
M  ZZC   5 o1
M  ZZC   6 n1
M  ZZC   7 c5
M  ZZC   8 c6
M  ZZC   9 o2
M  ZZC  10 n2
M  ZZC  11 c7
M  ZZC  12 o3
M  ZZC  13 c8
M  ZZC  14 c9
M  ZZC  15 c10
M  ZZC  16 c11
M  ZZC  17 c12
M  ZZC  18 c13
M  ZZC  19 h11
M  ZZC  20 h51
M  ZZC  21 h21
M  ZZC  22 h81
M  ZZC  23 h82
M  ZZC  24 h91
M  ZZC  25 h92
M  ZZC  26 h101
M  ZZC  27 h102
M  ZZC  28 h111
M  ZZC  29 h121
M  ZZC  30 h131
M  ZZM   1 37
M  ZZI   1 125
M  ZZM   2 37
M  ZZI   2 124
M  ZZM   3 37
M  ZZI   3 124
M  ZZM   4 3
M  ZZI   4 121
M  ZZM   5 7
M  ZZI   5 81
M  ZZM   6 10
M  ZZI   6 192
M  ZZM   7 1
M  ZZI   7 113
M  ZZM   8 3
M  ZZI   8 121
M  ZZM   9 7
M  ZZI   9 81
M  ZZM  10 10
M  ZZI  10 191
M  ZZM  11 3
M  ZZI  11 121
M  ZZM  12 7
M  ZZI  12 81
M  ZZM  13 1
M  ZZI  13 112
M  ZZM  14 1
M  ZZI  14 112
M  ZZM  15 1
M  ZZI  15 112
M  ZZM  16 37
M  ZZI  16 125
M  ZZM  17 37
M  ZZI  17 125
M  ZZM  18 37
M  ZZI  18 125
M  ZZM  19 5
M  ZZI  19 1
M  ZZM  20 5
M  ZZI  20 1
M  ZZM  21 28
M  ZZI  21 11
M  ZZM  22 5
M  ZZI  22 1
M  ZZM  23 5
M  ZZI  23 1
M  ZZM  24 5
M  ZZI  24 1
M  ZZM  25 5
M  ZZI  25 1
M  ZZM  26 5
M  ZZI  26 1
M  ZZM  27 5
M  ZZI  27 1
M  ZZM  28 5
M  ZZI  28 1
M  ZZM  29 5
M  ZZI  29 1
M  ZZM  30 5
M  ZZI  30 1
M  END
> <IX>
1

> <NAME>
Cereblon_7NQ8_3.pdb

> <Score>
-15.519342

> <Natom>
30

> <Nflex>
1

> <Hbond>
-4.228007

> <Hphob>
-3.725973

> <VwInt>
-19.364226

> <Dsolv>
13.76219

> <SolEl>
6.268659

> <Eintl>
3.298644

> <RecConf>
ND

> <projPath>
Cereblon_maps/

> <NAME_>
Cereblon_7NQ8_3.pdb

$$$$
