Cereblon_5VBP_34.pdb
  MOLSOFT 04032206283D

 30 32  0  0  1  0  0  0  0  0999 V2000
   77.8803   41.4295   42.1557 C   0  0  0  0  0  0  0  0  0  0  0  0
   77.1849   41.4162   40.9574 C   0  0  0  0  0  0  0  0  0  0  0  0
   77.4297   42.3683   40.0049 C   0  0  0  0  0  0  0  0  0  0  0  0
   76.5398   42.1153   38.8649 C   0  0  0  0  0  0  0  0  0  0  0  0
   76.5318   42.7626   37.8272 O   0  0  0  0  0  0  0  0  0  0  0  0
   75.7333   41.0484   39.2161 N   0  0  0  0  0  0  0  0  0  0  0  0
   74.4446   40.7707   38.5596 C   0  0  2  0  0  0  0  0  0  0  0  0
   73.3587   41.5459   39.2815 C   0  0  0  0  0  0  0  0  0  0  0  0
   73.6092   42.4439   40.0662 O   0  0  0  0  0  0  0  0  0  0  0  0
   72.0662   41.2053   38.9678 N   0  0  0  0  0  0  0  0  0  0  0  0
   71.6339   40.1308   38.2301 C   0  0  0  0  0  0  0  0  0  0  0  0
   70.4507   39.9751   37.9641 O   0  0  0  0  0  0  0  0  0  0  0  0
   72.7170   39.1904   37.7362 C   0  0  0  0  0  0  0  0  0  0  0  0
   74.0116   39.3106   38.5362 C   0  0  0  0  0  0  0  0  0  0  0  0
   76.1174   40.4898   40.4998 C   0  0  0  0  0  0  0  0  0  0  0  0
   78.3692   43.3724   40.1708 C   0  0  0  0  0  0  0  0  0  0  0  0
   79.0830   43.3808   41.3621 C   0  0  0  0  0  0  0  0  0  0  0  0
   78.8336   42.4240   42.3453 C   0  0  0  0  0  0  0  0  0  0  0  0
   77.6886   40.6945   42.9319 H   0  0  0  0  0  0  0  0  0  0  0  0
   74.4858   41.1852   37.5455 H   0  0  0  0  0  0  0  0  0  0  0  0
   71.3505   41.8196   39.3367 H   0  0  0  0  0  0  0  0  0  0  0  0
   72.3398   38.1648   37.7978 H   0  0  0  0  0  0  0  0  0  0  0  0
   72.8994   39.4182   36.6803 H   0  0  0  0  0  0  0  0  0  0  0  0
   73.8502   38.9408   39.5556 H   0  0  0  0  0  0  0  0  0  0  0  0
   74.7873   38.6804   38.0929 H   0  0  0  0  0  0  0  0  0  0  0  0
   76.4812   39.4661   40.3609 H   0  0  0  0  0  0  0  0  0  0  0  0
   75.2659   40.5203   41.1731 H   0  0  0  0  0  0  0  0  0  0  0  0
   78.5407   44.1221   39.4055 H   0  0  0  0  0  0  0  0  0  0  0  0
   79.8298   44.1489   41.5357 H   0  0  0  0  0  0  0  0  0  0  0  0
   79.3924   42.4555   43.2756 H   0  0  0  0  0  0  0  0  0  0  0  0
  1 19  1  0  0  0  0
  1 18  2  0  0  0  0
  1  2  1  0  0  0  0
  2  3  2  0  0  0  0
  2 15  1  0  0  0  0
  3 16  1  0  0  0  0
  3  4  1  0  0  0  0
  4  6  1  0  0  0  0
  4  5  2  0  0  0  0
  6 15  1  0  0  0  0
  7  6  1  0  0  0  0
  7 20  1  0  0  0  0
  7  8  1  0  0  0  0
  7 14  1  0  0  0  0
  8  9  2  0  0  0  0
  8 10  1  0  0  0  0
 10 21  1  0  0  0  0
 10 11  1  0  0  0  0
 11 12  2  0  0  0  0
 11 13  1  0  0  0  0
 13 22  1  0  0  0  0
 13 23  1  0  0  0  0
 13 14  1  0  0  0  0
 14 24  1  0  0  0  0
 14 25  1  0  0  0  0
 15 26  1  0  0  0  0
 15 27  1  0  0  0  0
 16 17  2  0  0  0  0
 16 28  1  0  0  0  0
 17 18  1  0  0  0  0
 17 29  1  0  0  0  0
 18 30  1  0  0  0  0
M  ZZC   1 c1
M  ZZC   2 c2
M  ZZC   3 c3
M  ZZC   4 c4
M  ZZC   5 o1
M  ZZC   6 n1
M  ZZC   7 c5
M  ZZC   8 c6
M  ZZC   9 o2
M  ZZC  10 n2
M  ZZC  11 c7
M  ZZC  12 o3
M  ZZC  13 c8
M  ZZC  14 c9
M  ZZC  15 c10
M  ZZC  16 c11
M  ZZC  17 c12
M  ZZC  18 c13
M  ZZC  19 h11
M  ZZC  20 h51
M  ZZC  21 h21
M  ZZC  22 h81
M  ZZC  23 h82
M  ZZC  24 h91
M  ZZC  25 h92
M  ZZC  26 h101
M  ZZC  27 h102
M  ZZC  28 h111
M  ZZC  29 h121
M  ZZC  30 h131
M  ZZM   1 37
M  ZZI   1 125
M  ZZM   2 37
M  ZZI   2 124
M  ZZM   3 37
M  ZZI   3 124
M  ZZM   4 3
M  ZZI   4 121
M  ZZM   5 7
M  ZZI   5 81
M  ZZM   6 10
M  ZZI   6 192
M  ZZM   7 1
M  ZZI   7 113
M  ZZM   8 3
M  ZZI   8 121
M  ZZM   9 7
M  ZZI   9 81
M  ZZM  10 10
M  ZZI  10 191
M  ZZM  11 3
M  ZZI  11 121
M  ZZM  12 7
M  ZZI  12 81
M  ZZM  13 1
M  ZZI  13 112
M  ZZM  14 1
M  ZZI  14 112
M  ZZM  15 1
M  ZZI  15 112
M  ZZM  16 37
M  ZZI  16 125
M  ZZM  17 37
M  ZZI  17 125
M  ZZM  18 37
M  ZZI  18 125
M  ZZM  19 5
M  ZZI  19 1
M  ZZM  20 5
M  ZZI  20 1
M  ZZM  21 28
M  ZZI  21 11
M  ZZM  22 5
M  ZZI  22 1
M  ZZM  23 5
M  ZZI  23 1
M  ZZM  24 5
M  ZZI  24 1
M  ZZM  25 5
M  ZZI  25 1
M  ZZM  26 5
M  ZZI  26 1
M  ZZM  27 5
M  ZZI  27 1
M  ZZM  28 5
M  ZZI  28 1
M  ZZM  29 5
M  ZZI  29 1
M  ZZM  30 5
M  ZZI  30 1
M  END
> <IX>
1

> <NAME>
Cereblon_5VBP_34.pdb

> <Score>
-15.403861

> <Natom>
30

> <Nflex>
1

> <Hbond>
-4.217268

> <Hphob>
-3.745474

> <VwInt>
-19.371872

> <Dsolv>
13.717692

> <SolEl>
6.489981

> <Eintl>
3.292514

> <RecConf>
ND

> <projPath>
Cereblon_maps/

> <NAME_>
Cereblon_5VBP_34.pdb

$$$$
