Cereblon_5WGL_1.pdb
  MOLSOFT 04032206283D

 31 33  0  0  1  0  0  0  0  0999 V2000
   76.7310   41.9958   40.4748 N   0  0  0  0  0  0  0  0  0  0  0  0
   76.3220   40.6860   40.1807 C   0  0  0  0  0  0  0  0  0  0  0  0
   75.2240   40.4181   39.3822 C   0  0  0  0  0  0  0  0  0  0  0  0
   74.3447   41.3495   38.6863 C   0  0  0  0  0  0  0  0  0  0  0  0
   74.4021   42.5590   38.8497 O   0  0  0  0  0  0  0  0  0  0  0  0
   73.4818   40.5832   37.9252 N   0  0  0  0  0  0  0  0  0  0  0  0
   73.6927   39.2394   38.1635 C   0  0  0  0  0  0  0  0  0  0  0  0
   73.1007   38.2682   37.7154 O   0  0  0  0  0  0  0  0  0  0  0  0
   74.8124   39.1533   39.0993 C   0  0  0  0  0  0  0  0  0  0  0  0
   75.4280   38.0442   39.6482 C   0  0  0  0  0  0  0  0  0  0  0  0
   76.4955   38.2830   40.5054 C   0  0  0  0  0  0  0  0  0  0  0  0
   76.9277   39.5825   40.7735 C   0  0  0  0  0  0  0  0  0  0  0  0
   72.3977   41.0789   37.0651 C   0  0  1  0  0  0  0  0  0  0  0  0
   71.1526   41.3412   37.9064 C   0  0  0  0  0  0  0  0  0  0  0  0
   70.8922   40.7238   38.9287 O   0  0  0  0  0  0  0  0  0  0  0  0
   70.2675   42.2637   37.3994 N   0  0  0  0  0  0  0  0  0  0  0  0
   70.3855   43.0468   36.2826 C   0  0  0  0  0  0  0  0  0  0  0  0
   69.5644   43.9144   36.0299 O   0  0  0  0  0  0  0  0  0  0  0  0
   71.5707   42.7460   35.4011 C   0  0  0  0  0  0  0  0  0  0  0  0
   72.7623   42.3132   36.2397 C   0  0  0  0  0  0  0  0  0  0  0  0
   77.6683   42.1272   40.8499 H   0  0  0  0  0  0  0  0  0  0  0  0
   76.3436   42.7537   39.9126 H   0  0  0  0  0  0  0  0  0  0  0  0
   75.0926   37.0358   39.4244 H   0  0  0  0  0  0  0  0  0  0  0  0
   77.0043   37.4448   40.9717 H   0  0  0  0  0  0  0  0  0  0  0  0
   77.7620   39.7325   41.4513 H   0  0  0  0  0  0  0  0  0  0  0  0
   72.1278   40.2657   36.3813 H   0  0  0  0  0  0  0  0  0  0  0  0
   69.4400   42.4343   37.9520 H   0  0  0  0  0  0  0  0  0  0  0  0
   71.2842   41.9678   34.6856 H   0  0  0  0  0  0  0  0  0  0  0  0
   71.8185   43.6489   34.8384 H   0  0  0  0  0  0  0  0  0  0  0  0
   73.6192   42.0964   35.5940 H   0  0  0  0  0  0  0  0  0  0  0  0
   73.0556   43.1484   36.8831 H   0  0  0  0  0  0  0  0  0  0  0  0
  1  2  1  0  0  0  0
  1 21  1  0  0  0  0
  1 22  1  0  0  0  0
  2  3  1  0  0  0  0
  2 12  2  0  0  0  0
  3  9  2  0  0  0  0
  3  4  1  0  0  0  0
  4  5  2  0  0  0  0
  4  6  1  0  0  0  0
  6  7  1  0  0  0  0
 13  6  1  0  0  0  0
  7  8  2  0  0  0  0
  7  9  1  0  0  0  0
  9 10  1  0  0  0  0
 10 23  1  0  0  0  0
 10 11  2  0  0  0  0
 11 12  1  0  0  0  0
 11 24  1  0  0  0  0
 12 25  1  0  0  0  0
 13 26  1  0  0  0  0
 13 14  1  0  0  0  0
 13 20  1  0  0  0  0
 14 15  2  0  0  0  0
 14 16  1  0  0  0  0
 16 27  1  0  0  0  0
 16 17  1  0  0  0  0
 17 18  2  0  0  0  0
 17 19  1  0  0  0  0
 19 28  1  0  0  0  0
 19 29  1  0  0  0  0
 19 20  1  0  0  0  0
 20 30  1  0  0  0  0
 20 31  1  0  0  0  0
M  ZZC   1 n1
M  ZZC   2 c1
M  ZZC   3 c2
M  ZZC   4 c3
M  ZZC   5 o1
M  ZZC   6 n2
M  ZZC   7 c4
M  ZZC   8 o2
M  ZZC   9 c5
M  ZZC  10 c6
M  ZZC  11 c7
M  ZZC  12 c8
M  ZZC  13 c9
M  ZZC  14 c10
M  ZZC  15 o3
M  ZZC  16 n3
M  ZZC  17 c11
M  ZZC  18 o4
M  ZZC  19 c12
M  ZZC  20 c13
M  ZZC  21 h11
M  ZZC  22 h12
M  ZZC  23 h61
M  ZZC  24 h71
M  ZZC  25 h81
M  ZZC  26 h91
M  ZZC  27 h31
M  ZZC  28 h121
M  ZZC  29 h122
M  ZZC  30 h131
M  ZZC  31 h132
M  ZZM   1 40
M  ZZI   1 224
M  ZZM   2 37
M  ZZI   2 124
M  ZZM   3 37
M  ZZI   3 124
M  ZZM   4 3
M  ZZI   4 121
M  ZZM   5 7
M  ZZI   5 81
M  ZZM   6 10
M  ZZI   6 192
M  ZZM   7 3
M  ZZI   7 121
M  ZZM   8 7
M  ZZI   8 81
M  ZZM   9 37
M  ZZI   9 124
M  ZZM  10 37
M  ZZI  10 125
M  ZZM  11 37
M  ZZI  11 125
M  ZZM  12 37
M  ZZI  12 125
M  ZZM  13 1
M  ZZI  13 113
M  ZZM  14 3
M  ZZI  14 121
M  ZZM  15 7
M  ZZI  15 81
M  ZZM  16 10
M  ZZI  16 191
M  ZZM  17 3
M  ZZI  17 121
M  ZZM  18 7
M  ZZI  18 81
M  ZZM  19 1
M  ZZI  19 112
M  ZZM  20 1
M  ZZI  20 112
M  ZZM  21 28
M  ZZI  21 11
M  ZZM  22 28
M  ZZI  22 11
M  ZZM  23 5
M  ZZI  23 1
M  ZZM  24 5
M  ZZI  24 1
M  ZZM  25 5
M  ZZI  25 1
M  ZZM  26 5
M  ZZI  26 1
M  ZZM  27 28
M  ZZI  27 11
M  ZZM  28 5
M  ZZI  28 1
M  ZZM  29 5
M  ZZI  29 1
M  ZZM  30 5
M  ZZI  30 1
M  ZZM  31 5
M  ZZI  31 1
M  END
> <IX>
1

> <NAME>
Cereblon_5WGL_1.pdb

> <Score>
-19.555344

> <Natom>
31

> <Nflex>
1

> <Hbond>
-4.811745

> <Hphob>
-3.482698

> <VwInt>
-25.372194

> <Dsolv>
15.984121

> <SolEl>
10.46361

> <Eintl>
1.383162

> <RecConf>
ND

> <projPath>
Cereblon_maps/

> <NAME_>
Cereblon_5WGL_1.pdb

$$$$
