Cereblon_7NQ8_9.pdb
  MOLSOFT 04032206303D

 31 33  0  0  1  0  0  0  0  0999 V2000
   78.7297   41.7112   43.8939 N   0  0  0  0  0  0  0  0  0  0  0  0
   78.7871   42.4980   42.7320 C   0  0  0  0  0  0  0  0  0  0  0  0
   78.0712   42.1759   41.5907 C   0  0  0  0  0  0  0  0  0  0  0  0
   77.1580   41.0626   41.3697 C   0  0  0  0  0  0  0  0  0  0  0  0
   76.9371   40.2027   42.2089 O   0  0  0  0  0  0  0  0  0  0  0  0
   76.6655   41.2058   40.0880 N   0  0  0  0  0  0  0  0  0  0  0  0
   77.2006   42.3211   39.4768 C   0  0  0  0  0  0  0  0  0  0  0  0
   77.0019   42.7408   38.3441 O   0  0  0  0  0  0  0  0  0  0  0  0
   78.1124   42.9225   40.4521 C   0  0  0  0  0  0  0  0  0  0  0  0
   78.9347   44.0243   40.3394 C   0  0  0  0  0  0  0  0  0  0  0  0
   79.7253   44.3306   41.4412 C   0  0  0  0  0  0  0  0  0  0  0  0
   79.6570   43.5786   42.6158 C   0  0  0  0  0  0  0  0  0  0  0  0
   75.6507   40.3711   39.4413 C   0  0  2  0  0  0  0  0  0  0  0  0
   74.2783   40.9558   39.7312 C   0  0  0  0  0  0  0  0  0  0  0  0
   74.1091   42.1377   39.9815 O   0  0  0  0  0  0  0  0  0  0  0  0
   73.2147   40.0950   39.6147 N   0  0  0  0  0  0  0  0  0  0  0  0
   73.2361   38.7553   39.3107 C   0  0  0  0  0  0  0  0  0  0  0  0
   72.2093   38.1056   39.2003 O   0  0  0  0  0  0  0  0  0  0  0  0
   74.5980   38.1503   39.0685 C   0  0  0  0  0  0  0  0  0  0  0  0
   75.6764   38.8970   39.8338 C   0  0  0  0  0  0  0  0  0  0  0  0
   78.9758   42.1409   44.7843 H   0  0  0  0  0  0  0  0  0  0  0  0
   78.0204   40.9771   43.9254 H   0  0  0  0  0  0  0  0  0  0  0  0
   78.9657   44.6127   39.4306 H   0  0  0  0  0  0  0  0  0  0  0  0
   80.4024   45.1761   41.3920 H   0  0  0  0  0  0  0  0  0  0  0  0
   80.2905   43.8487   43.4553 H   0  0  0  0  0  0  0  0  0  0  0  0
   75.7974   40.4677   38.3642 H   0  0  0  0  0  0  0  0  0  0  0  0
   72.3004   40.5020   39.7674 H   0  0  0  0  0  0  0  0  0  0  0  0
   74.5773   37.1039   39.3891 H   0  0  0  0  0  0  0  0  0  0  0  0
   74.7905   38.1716   37.9912 H   0  0  0  0  0  0  0  0  0  0  0  0
   76.6600   38.4616   39.6306 H   0  0  0  0  0  0  0  0  0  0  0  0
   75.4882   38.7714   40.9041 H   0  0  0  0  0  0  0  0  0  0  0  0
  1  2  1  0  0  0  0
  1 21  1  0  0  0  0
  1 22  1  0  0  0  0
  2  3  1  0  0  0  0
  2 12  2  0  0  0  0
  3  9  2  0  0  0  0
  3  4  1  0  0  0  0
  4  5  2  0  0  0  0
  4  6  1  0  0  0  0
  6  7  1  0  0  0  0
 13  6  1  0  0  0  0
  7  8  2  0  0  0  0
  7  9  1  0  0  0  0
  9 10  1  0  0  0  0
 10 23  1  0  0  0  0
 10 11  2  0  0  0  0
 11 12  1  0  0  0  0
 11 24  1  0  0  0  0
 12 25  1  0  0  0  0
 13 26  1  0  0  0  0
 13 14  1  0  0  0  0
 13 20  1  0  0  0  0
 14 15  2  0  0  0  0
 14 16  1  0  0  0  0
 16 27  1  0  0  0  0
 16 17  1  0  0  0  0
 17 18  2  0  0  0  0
 17 19  1  0  0  0  0
 19 28  1  0  0  0  0
 19 29  1  0  0  0  0
 19 20  1  0  0  0  0
 20 30  1  0  0  0  0
 20 31  1  0  0  0  0
M  ZZC   1 n1
M  ZZC   2 c1
M  ZZC   3 c2
M  ZZC   4 c3
M  ZZC   5 o1
M  ZZC   6 n2
M  ZZC   7 c4
M  ZZC   8 o2
M  ZZC   9 c5
M  ZZC  10 c6
M  ZZC  11 c7
M  ZZC  12 c8
M  ZZC  13 c9
M  ZZC  14 c10
M  ZZC  15 o3
M  ZZC  16 n3
M  ZZC  17 c11
M  ZZC  18 o4
M  ZZC  19 c12
M  ZZC  20 c13
M  ZZC  21 h11
M  ZZC  22 h12
M  ZZC  23 h61
M  ZZC  24 h71
M  ZZC  25 h81
M  ZZC  26 h91
M  ZZC  27 h31
M  ZZC  28 h121
M  ZZC  29 h122
M  ZZC  30 h131
M  ZZC  31 h132
M  ZZM   1 40
M  ZZI   1 224
M  ZZM   2 37
M  ZZI   2 124
M  ZZM   3 37
M  ZZI   3 124
M  ZZM   4 3
M  ZZI   4 121
M  ZZM   5 7
M  ZZI   5 81
M  ZZM   6 10
M  ZZI   6 192
M  ZZM   7 3
M  ZZI   7 121
M  ZZM   8 7
M  ZZI   8 81
M  ZZM   9 37
M  ZZI   9 124
M  ZZM  10 37
M  ZZI  10 125
M  ZZM  11 37
M  ZZI  11 125
M  ZZM  12 37
M  ZZI  12 125
M  ZZM  13 1
M  ZZI  13 113
M  ZZM  14 3
M  ZZI  14 121
M  ZZM  15 7
M  ZZI  15 81
M  ZZM  16 10
M  ZZI  16 191
M  ZZM  17 3
M  ZZI  17 121
M  ZZM  18 7
M  ZZI  18 81
M  ZZM  19 1
M  ZZI  19 112
M  ZZM  20 1
M  ZZI  20 112
M  ZZM  21 28
M  ZZI  21 11
M  ZZM  22 28
M  ZZI  22 11
M  ZZM  23 5
M  ZZI  23 1
M  ZZM  24 5
M  ZZI  24 1
M  ZZM  25 5
M  ZZI  25 1
M  ZZM  26 5
M  ZZI  26 1
M  ZZM  27 28
M  ZZI  27 11
M  ZZM  28 5
M  ZZI  28 1
M  ZZM  29 5
M  ZZI  29 1
M  ZZM  30 5
M  ZZI  30 1
M  ZZM  31 5
M  ZZI  31 1
M  END
> <IX>
1

> <NAME>
Cereblon_7NQ8_9.pdb

> <Score>
-21.691188

> <Natom>
31

> <Nflex>
1

> <Hbond>
-4.927775

> <Hphob>
-3.600542

> <VwInt>
-24.000437

> <Dsolv>
15.172279

> <SolEl>
6.274754

> <Eintl>
1.780562

> <RecConf>
ND

> <projPath>
Cereblon_maps/

> <NAME_>
Cereblon_7NQ8_9.pdb

$$$$
