Cereblon_6C7R_2.pdb
  MOLSOFT 04032206283D

 31 33  0  0  1  0  0  0  0  0999 V2000
   76.4186   39.8319   41.2691 N   0  0  0  0  0  0  0  0  0  0  0  0
   76.4465   40.9494   40.4234 C   0  0  0  0  0  0  0  0  0  0  0  0
   75.5146   41.1444   39.4158 C   0  0  0  0  0  0  0  0  0  0  0  0
   74.3808   40.3145   39.0086 C   0  0  0  0  0  0  0  0  0  0  0  0
   74.0882   39.2520   39.5388 O   0  0  0  0  0  0  0  0  0  0  0  0
   73.7682   40.9693   37.9571 N   0  0  0  0  0  0  0  0  0  0  0  0
   74.4651   42.1135   37.6339 C   0  0  0  0  0  0  0  0  0  0  0  0
   74.2992   42.8980   36.7152 O   0  0  0  0  0  0  0  0  0  0  0  0
   75.5523   42.2314   38.5992 C   0  0  0  0  0  0  0  0  0  0  0  0
   76.5043   43.2244   38.7308 C   0  0  0  0  0  0  0  0  0  0  0  0
   77.3977   43.0940   39.7836 C   0  0  0  0  0  0  0  0  0  0  0  0
   77.3573   41.9818   40.6229 C   0  0  0  0  0  0  0  0  0  0  0  0
   72.5896   40.4422   37.2520 C   0  0  2  0  0  0  0  0  0  0  0  0
   72.9968   39.9270   35.8840 C   0  0  0  0  0  0  0  0  0  0  0  0
   73.6464   38.9027   35.7439 O   0  0  0  0  0  0  0  0  0  0  0  0
   72.6636   40.7098   34.8059 N   0  0  0  0  0  0  0  0  0  0  0  0
   71.9200   41.8633   34.7637 C   0  0  0  0  0  0  0  0  0  0  0  0
   71.6957   42.4347   33.7088 O   0  0  0  0  0  0  0  0  0  0  0  0
   71.4128   42.4042   36.0785 C   0  0  0  0  0  0  0  0  0  0  0  0
   71.3678   41.3557   37.1791 C   0  0  0  0  0  0  0  0  0  0  0  0
   77.1960   39.6696   41.9063 H   0  0  0  0  0  0  0  0  0  0  0  0
   75.8325   39.0405   41.0007 H   0  0  0  0  0  0  0  0  0  0  0  0
   76.5489   44.0733   38.0555 H   0  0  0  0  0  0  0  0  0  0  0  0
   78.1449   43.8636   39.9530 H   0  0  0  0  0  0  0  0  0  0  0  0
   78.0738   41.9133   41.4352 H   0  0  0  0  0  0  0  0  0  0  0  0
   72.2711   39.5559   37.8117 H   0  0  0  0  0  0  0  0  0  0  0  0
   73.0184   40.3878   33.9128 H   0  0  0  0  0  0  0  0  0  0  0  0
   72.0281   43.2596   36.3646 H   0  0  0  0  0  0  0  0  0  0  0  0
   70.4016   42.7929   35.9168 H   0  0  0  0  0  0  0  0  0  0  0  0
   71.1836   41.8330   38.1463 H   0  0  0  0  0  0  0  0  0  0  0  0
   70.4981   40.7214   36.9836 H   0  0  0  0  0  0  0  0  0  0  0  0
  1  2  1  0  0  0  0
  1 21  1  0  0  0  0
  1 22  1  0  0  0  0
  2  3  1  0  0  0  0
  2 12  2  0  0  0  0
  3  9  2  0  0  0  0
  3  4  1  0  0  0  0
  4  5  2  0  0  0  0
  4  6  1  0  0  0  0
  6  7  1  0  0  0  0
 13  6  1  0  0  0  0
  7  8  2  0  0  0  0
  7  9  1  0  0  0  0
  9 10  1  0  0  0  0
 10 23  1  0  0  0  0
 10 11  2  0  0  0  0
 11 12  1  0  0  0  0
 11 24  1  0  0  0  0
 12 25  1  0  0  0  0
 13 26  1  0  0  0  0
 13 14  1  0  0  0  0
 13 20  1  0  0  0  0
 14 15  2  0  0  0  0
 14 16  1  0  0  0  0
 16 27  1  0  0  0  0
 16 17  1  0  0  0  0
 17 18  2  0  0  0  0
 17 19  1  0  0  0  0
 19 28  1  0  0  0  0
 19 29  1  0  0  0  0
 19 20  1  0  0  0  0
 20 30  1  0  0  0  0
 20 31  1  0  0  0  0
M  ZZC   1 n1
M  ZZC   2 c1
M  ZZC   3 c2
M  ZZC   4 c3
M  ZZC   5 o1
M  ZZC   6 n2
M  ZZC   7 c4
M  ZZC   8 o2
M  ZZC   9 c5
M  ZZC  10 c6
M  ZZC  11 c7
M  ZZC  12 c8
M  ZZC  13 c9
M  ZZC  14 c10
M  ZZC  15 o3
M  ZZC  16 n3
M  ZZC  17 c11
M  ZZC  18 o4
M  ZZC  19 c12
M  ZZC  20 c13
M  ZZC  21 h11
M  ZZC  22 h12
M  ZZC  23 h61
M  ZZC  24 h71
M  ZZC  25 h81
M  ZZC  26 h91
M  ZZC  27 h31
M  ZZC  28 h121
M  ZZC  29 h122
M  ZZC  30 h131
M  ZZC  31 h132
M  ZZM   1 40
M  ZZI   1 224
M  ZZM   2 37
M  ZZI   2 124
M  ZZM   3 37
M  ZZI   3 124
M  ZZM   4 3
M  ZZI   4 121
M  ZZM   5 7
M  ZZI   5 81
M  ZZM   6 10
M  ZZI   6 192
M  ZZM   7 3
M  ZZI   7 121
M  ZZM   8 7
M  ZZI   8 81
M  ZZM   9 37
M  ZZI   9 124
M  ZZM  10 37
M  ZZI  10 125
M  ZZM  11 37
M  ZZI  11 125
M  ZZM  12 37
M  ZZI  12 125
M  ZZM  13 1
M  ZZI  13 113
M  ZZM  14 3
M  ZZI  14 121
M  ZZM  15 7
M  ZZI  15 81
M  ZZM  16 10
M  ZZI  16 191
M  ZZM  17 3
M  ZZI  17 121
M  ZZM  18 7
M  ZZI  18 81
M  ZZM  19 1
M  ZZI  19 112
M  ZZM  20 1
M  ZZI  20 112
M  ZZM  21 28
M  ZZI  21 11
M  ZZM  22 28
M  ZZI  22 11
M  ZZM  23 5
M  ZZI  23 1
M  ZZM  24 5
M  ZZI  24 1
M  ZZM  25 5
M  ZZI  25 1
M  ZZM  26 5
M  ZZI  26 1
M  ZZM  27 28
M  ZZI  27 11
M  ZZM  28 5
M  ZZI  28 1
M  ZZM  29 5
M  ZZI  29 1
M  ZZM  30 5
M  ZZI  30 1
M  ZZM  31 5
M  ZZI  31 1
M  END
> <IX>
1

> <NAME>
Cereblon_6C7R_2.pdb

> <Score>
-7.247325

> <Natom>
31

> <Nflex>
1

> <Hbond>
-0.467472

> <Hphob>
-3.774092

> <VwInt>
-24.988187

> <Dsolv>
15.620663

> <SolEl>
9.887628

> <Eintl>
4.351458

> <RecConf>
ND

> <projPath>
Cereblon_maps/

> <NAME_>
Cereblon_6C7R_2.pdb

$$$$
