Cereblon_5P9J_1.pdb
  MOLSOFT 04032206263D

 37 39  0  0  1  0  0  0  0  0999 V2000
   80.2028   41.8639   45.5973 O   0  0  0  0  0  0  0  0  0  0  0  0
   80.8389   42.8311   45.2110 C   0  0  0  0  0  0  0  0  0  0  0  0
   80.6845   43.5399   44.0296 N   0  0  0  0  0  0  0  0  0  0  0  0
   79.7952   43.2520   42.9621 C   0  0  0  0  0  0  0  0  0  0  0  0
   78.9295   42.1545   42.9672 C   0  0  0  0  0  0  0  0  0  0  0  0
   78.1400   41.9381   41.8496 C   0  0  0  0  0  0  0  0  0  0  0  0
   78.1895   42.7887   40.7790 C   0  0  0  0  0  0  0  0  0  0  0  0
   77.2678   42.2934   39.7488 C   0  0  0  0  0  0  0  0  0  0  0  0
   77.0800   42.8167   38.6582 O   0  0  0  0  0  0  0  0  0  0  0  0
   76.7087   41.1354   40.2540 N   0  0  0  0  0  0  0  0  0  0  0  0
   75.6995   40.3513   39.5358 C   0  0  2  0  0  0  0  0  0  0  0  0
   74.3250   40.9686   39.7553 C   0  0  0  0  0  0  0  0  0  0  0  0
   74.1507   42.1553   39.9762 O   0  0  0  0  0  0  0  0  0  0  0  0
   73.2469   40.1262   39.6281 N   0  0  0  0  0  0  0  0  0  0  0  0
   73.2465   38.7831   39.3455 C   0  0  0  0  0  0  0  0  0  0  0  0
   72.2096   38.1504   39.2306 O   0  0  0  0  0  0  0  0  0  0  0  0
   74.5994   38.1525   39.1261 C   0  0  0  0  0  0  0  0  0  0  0  0
   75.6799   38.8740   39.9120 C   0  0  0  0  0  0  0  0  0  0  0  0
   77.1917   40.8270   41.5897 C   0  0  0  0  0  0  0  0  0  0  0  0
   79.0235   43.8878   40.7425 C   0  0  0  0  0  0  0  0  0  0  0  0
   79.8284   44.1063   41.8536 C   0  0  0  0  0  0  0  0  0  0  0  0
   81.9458   43.3901   46.0498 C   0  0  0  0  0  0  0  0  0  0  0  0
   81.2532   44.3715   43.9269 H   0  0  0  0  0  0  0  0  0  0  0  0
   78.8682   41.4659   43.8022 H   0  0  0  0  0  0  0  0  0  0  0  0
   75.9098   40.4626   38.4696 H   0  0  0  0  0  0  0  0  0  0  0  0
   72.3384   40.5560   39.7497 H   0  0  0  0  0  0  0  0  0  0  0  0
   74.5520   37.1054   39.4414 H   0  0  0  0  0  0  0  0  0  0  0  0
   74.8106   38.1738   38.0525 H   0  0  0  0  0  0  0  0  0  0  0  0
   76.6552   38.4177   39.7131 H   0  0  0  0  0  0  0  0  0  0  0  0
   75.4864   38.7511   40.9823 H   0  0  0  0  0  0  0  0  0  0  0  0
   77.7061   39.8601   41.5831 H   0  0  0  0  0  0  0  0  0  0  0  0
   76.3649   40.8301   42.3017 H   0  0  0  0  0  0  0  0  0  0  0  0
   79.0506   44.5468   39.8813 H   0  0  0  0  0  0  0  0  0  0  0  0
   80.4935   44.9623   41.8454 H   0  0  0  0  0  0  0  0  0  0  0  0
   82.0579   42.7903   46.9538 H   0  0  0  0  0  0  0  0  0  0  0  0
   81.7155   44.4169   46.3410 H   0  0  0  0  0  0  0  0  0  0  0  0
   82.8747   43.3722   45.4802 H   0  0  0  0  0  0  0  0  0  0  0  0
  1  2  2  0  0  0  0
  2  3  1  0  0  0  0
  2 22  1  0  0  0  0
  3  4  1  0  0  0  0
  3 23  1  0  0  0  0
  4  5  1  0  0  0  0
  4 21  2  0  0  0  0
  5 24  1  0  0  0  0
  5  6  2  0  0  0  0
  6  7  1  0  0  0  0
  6 19  1  0  0  0  0
  7 20  2  0  0  0  0
  7  8  1  0  0  0  0
  8 10  1  0  0  0  0
  8  9  2  0  0  0  0
 10 19  1  0  0  0  0
 11 10  1  0  0  0  0
 11 25  1  0  0  0  0
 11 18  1  0  0  0  0
 11 12  1  0  0  0  0
 12 14  1  0  0  0  0
 12 13  2  0  0  0  0
 14 15  1  0  0  0  0
 14 26  1  0  0  0  0
 15 17  1  0  0  0  0
 15 16  2  0  0  0  0
 17 18  1  0  0  0  0
 17 27  1  0  0  0  0
 17 28  1  0  0  0  0
 18 29  1  0  0  0  0
 18 30  1  0  0  0  0
 19 31  1  0  0  0  0
 19 32  1  0  0  0  0
 20 21  1  0  0  0  0
 20 33  1  0  0  0  0
 21 34  1  0  0  0  0
 22 35  1  0  0  0  0
 22 36  1  0  0  0  0
 22 37  1  0  0  0  0
M  ZZC   1 o1
M  ZZC   2 c1
M  ZZC   3 n1
M  ZZC   4 c2
M  ZZC   5 c3
M  ZZC   6 c4
M  ZZC   7 c5
M  ZZC   8 c6
M  ZZC   9 o2
M  ZZC  10 n2
M  ZZC  11 c7
M  ZZC  12 c8
M  ZZC  13 o3
M  ZZC  14 n3
M  ZZC  15 c9
M  ZZC  16 o4
M  ZZC  17 c10
M  ZZC  18 c11
M  ZZC  19 c12
M  ZZC  20 c13
M  ZZC  21 c14
M  ZZC  22 c15
M  ZZC  23 h11
M  ZZC  24 h31
M  ZZC  25 h71
M  ZZC  26 h01
M  ZZC  27 h101
M  ZZC  28 h102
M  ZZC  29 h111
M  ZZC  30 h112
M  ZZC  31 h121
M  ZZC  32 h122
M  ZZC  33 h131
M  ZZC  34 h141
M  ZZC  35 h151
M  ZZC  36 h152
M  ZZC  37 h153
M  ZZM   1 7
M  ZZI   1 81
M  ZZM   2 3
M  ZZI   2 121
M  ZZM   3 10
M  ZZI   3 191
M  ZZM   4 37
M  ZZI   4 124
M  ZZM   5 37
M  ZZI   5 125
M  ZZM   6 37
M  ZZI   6 124
M  ZZM   7 37
M  ZZI   7 124
M  ZZM   8 3
M  ZZI   8 121
M  ZZM   9 7
M  ZZI   9 81
M  ZZM  10 10
M  ZZI  10 192
M  ZZM  11 1
M  ZZI  11 113
M  ZZM  12 3
M  ZZI  12 121
M  ZZM  13 7
M  ZZI  13 81
M  ZZM  14 10
M  ZZI  14 191
M  ZZM  15 3
M  ZZI  15 121
M  ZZM  16 7
M  ZZI  16 81
M  ZZM  17 1
M  ZZI  17 112
M  ZZM  18 1
M  ZZI  18 112
M  ZZM  19 1
M  ZZI  19 112
M  ZZM  20 37
M  ZZI  20 125
M  ZZM  21 37
M  ZZI  21 125
M  ZZM  22 1
M  ZZI  22 111
M  ZZM  23 28
M  ZZI  23 11
M  ZZM  24 5
M  ZZI  24 1
M  ZZM  25 5
M  ZZI  25 1
M  ZZM  26 28
M  ZZI  26 11
M  ZZM  27 5
M  ZZI  27 1
M  ZZM  28 5
M  ZZI  28 1
M  ZZM  29 5
M  ZZI  29 1
M  ZZM  30 5
M  ZZI  30 1
M  ZZM  31 5
M  ZZI  31 1
M  ZZM  32 5
M  ZZI  32 1
M  ZZM  33 5
M  ZZI  33 1
M  ZZM  34 5
M  ZZI  34 1
M  ZZM  35 5
M  ZZI  35 1
M  ZZM  36 5
M  ZZI  36 1
M  ZZM  37 5
M  ZZI  37 1
M  END
> <IX>
1

> <NAME>
Cereblon_5P9J_1.pdb

> <Score>
-24.884394

> <Natom>
37

> <Nflex>
1

> <Hbond>
-4.766678

> <Hphob>
-4.523831

> <VwInt>
-27.017048

> <Dsolv>
15.205822

> <SolEl>
6.609798

> <Eintl>
1.427471

> <RecConf>
ND

> <projPath>
Cereblon_maps/

> <NAME_>
Cereblon_5P9J_1.pdb

$$$$
