Cereblon_5TRF_13.pdb
  MOLSOFT 04032206273D

 30 32  0  0  1  0  0  0  0  0999 V2000
   76.6812   38.1239   40.6643 C   0  0  0  0  0  0  0  0  0  0  0  0
   75.6655   37.9107   39.7388 C   0  0  0  0  0  0  0  0  0  0  0  0
   74.9762   39.0137   39.2630 C   0  0  0  0  0  0  0  0  0  0  0  0
   75.2948   40.2637   39.7126 C   0  0  0  0  0  0  0  0  0  0  0  0
   74.4136   41.2275   39.0522 C   0  0  0  0  0  0  0  0  0  0  0  0
   74.4202   42.4214   39.3107 O   0  0  0  0  0  0  0  0  0  0  0  0
   73.6387   40.5117   38.1518 N   0  0  0  0  0  0  0  0  0  0  0  0
   72.6051   41.0401   37.2460 C   0  0  1  0  0  0  0  0  0  0  0  0
   71.2799   41.2524   37.9768 C   0  0  0  0  0  0  0  0  0  0  0  0
   70.9216   40.5729   38.9279 O   0  0  0  0  0  0  0  0  0  0  0  0
   70.4418   42.2055   37.4447 N   0  0  0  0  0  0  0  0  0  0  0  0
   70.6540   43.0439   36.3833 C   0  0  0  0  0  0  0  0  0  0  0  0
   69.8491   43.9112   36.0808 O   0  0  0  0  0  0  0  0  0  0  0  0
   71.9153   42.7906   35.5964 C   0  0  0  0  0  0  0  0  0  0  0  0
   73.0334   42.3068   36.5056 C   0  0  0  0  0  0  0  0  0  0  0  0
   73.8687   39.0816   38.2729 C   0  0  0  0  0  0  0  0  0  0  0  0
   76.3009   40.5061   40.6300 C   0  0  0  0  0  0  0  0  0  0  0  0
   76.9966   39.4057   41.1077 C   0  0  0  0  0  0  0  0  0  0  0  0
   77.2422   37.2779   41.0486 H   0  0  0  0  0  0  0  0  0  0  0  0
   75.4268   36.9079   39.3975 H   0  0  0  0  0  0  0  0  0  0  0  0
   72.4191   40.2617   36.4967 H   0  0  0  0  0  0  0  0  0  0  0  0
   69.5685   42.3488   37.9304 H   0  0  0  0  0  0  0  0  0  0  0  0
   71.6961   42.0579   34.8124 H   0  0  0  0  0  0  0  0  0  0  0  0
   72.2096   43.7262   35.1167 H   0  0  0  0  0  0  0  0  0  0  0  0
   73.2855   43.1066   37.2073 H   0  0  0  0  0  0  0  0  0  0  0  0
   73.9361   42.1134   35.9171 H   0  0  0  0  0  0  0  0  0  0  0  0
   74.1577   38.6683   37.3008 H   0  0  0  0  0  0  0  0  0  0  0  0
   72.9622   38.5960   38.6500 H   0  0  0  0  0  0  0  0  0  0  0  0
   76.5467   41.5119   40.9550 H   0  0  0  0  0  0  0  0  0  0  0  0
   77.7944   39.5478   41.8303 H   0  0  0  0  0  0  0  0  0  0  0  0
  1 19  1  0  0  0  0
  1 18  2  0  0  0  0
  1  2  1  0  0  0  0
  2  3  2  0  0  0  0
  2 20  1  0  0  0  0
  3  4  1  0  0  0  0
  3 16  1  0  0  0  0
  4 17  2  0  0  0  0
  4  5  1  0  0  0  0
  5  7  1  0  0  0  0
  5  6  2  0  0  0  0
  7 16  1  0  0  0  0
  8  7  1  0  0  0  0
  8 21  1  0  0  0  0
  8 15  1  0  0  0  0
  8  9  1  0  0  0  0
  9 11  1  0  0  0  0
  9 10  2  0  0  0  0
 11 12  1  0  0  0  0
 11 22  1  0  0  0  0
 12 14  1  0  0  0  0
 12 13  2  0  0  0  0
 14 15  1  0  0  0  0
 14 23  1  0  0  0  0
 14 24  1  0  0  0  0
 15 25  1  0  0  0  0
 15 26  1  0  0  0  0
 16 27  1  0  0  0  0
 16 28  1  0  0  0  0
 17 18  1  0  0  0  0
 17 29  1  0  0  0  0
 18 30  1  0  0  0  0
M  ZZC   1 c1
M  ZZC   2 c2
M  ZZC   3 c3
M  ZZC   4 c4
M  ZZC   5 c5
M  ZZC   6 o1
M  ZZC   7 n1
M  ZZC   8 c6
M  ZZC   9 c7
M  ZZC  10 o2
M  ZZC  11 n2
M  ZZC  12 c8
M  ZZC  13 o3
M  ZZC  14 c9
M  ZZC  15 c10
M  ZZC  16 c11
M  ZZC  17 c12
M  ZZC  18 c13
M  ZZC  19 h11
M  ZZC  20 h21
M  ZZC  21 h61
M  ZZC  22 h01
M  ZZC  23 h91
M  ZZC  24 h92
M  ZZC  25 h101
M  ZZC  26 h102
M  ZZC  27 h111
M  ZZC  28 h112
M  ZZC  29 h121
M  ZZC  30 h131
M  ZZM   1 37
M  ZZI   1 125
M  ZZM   2 37
M  ZZI   2 125
M  ZZM   3 37
M  ZZI   3 124
M  ZZM   4 37
M  ZZI   4 124
M  ZZM   5 3
M  ZZI   5 121
M  ZZM   6 7
M  ZZI   6 81
M  ZZM   7 10
M  ZZI   7 192
M  ZZM   8 1
M  ZZI   8 113
M  ZZM   9 3
M  ZZI   9 121
M  ZZM  10 7
M  ZZI  10 81
M  ZZM  11 10
M  ZZI  11 191
M  ZZM  12 3
M  ZZI  12 121
M  ZZM  13 7
M  ZZI  13 81
M  ZZM  14 1
M  ZZI  14 112
M  ZZM  15 1
M  ZZI  15 112
M  ZZM  16 1
M  ZZI  16 112
M  ZZM  17 37
M  ZZI  17 125
M  ZZM  18 37
M  ZZI  18 125
M  ZZM  19 5
M  ZZI  19 1
M  ZZM  20 5
M  ZZI  20 1
M  ZZM  21 5
M  ZZI  21 1
M  ZZM  22 28
M  ZZI  22 11
M  ZZM  23 5
M  ZZI  23 1
M  ZZM  24 5
M  ZZI  24 1
M  ZZM  25 5
M  ZZI  25 1
M  ZZM  26 5
M  ZZI  26 1
M  ZZM  27 5
M  ZZI  27 1
M  ZZM  28 5
M  ZZI  28 1
M  ZZM  29 5
M  ZZI  29 1
M  ZZM  30 5
M  ZZI  30 1
M  END
> <IX>
1

> <NAME>
Cereblon_5TRF_13.pdb

> <Score>
-20.834813

> <Natom>
30

> <Nflex>
1

> <Hbond>
-4.667508

> <Hphob>
-3.601713

> <VwInt>
-22.010367

> <Dsolv>
13.26527

> <SolEl>
5.765698

> <Eintl>
1.738639

> <RecConf>
ND

> <projPath>
Cereblon_maps/

> <NAME_>
Cereblon_5TRF_13.pdb

$$$$
