Cereblon_4QNQ_43.pdb
  MOLSOFT 04032206243D

 31 33  0  0  1  0  0  0  0  0999 V2000
   76.1867   36.8116   40.1795 N   0  0  0  0  0  0  0  0  0  0  0  0
   76.4588   38.1613   40.4541 C   0  0  0  0  0  0  0  0  0  0  0  0
   75.7356   39.1931   39.8738 C   0  0  0  0  0  0  0  0  0  0  0  0
   74.6813   39.1442   38.8594 C   0  0  0  0  0  0  0  0  0  0  0  0
   74.2547   38.1118   38.3611 O   0  0  0  0  0  0  0  0  0  0  0  0
   74.3124   40.4506   38.6090 N   0  0  0  0  0  0  0  0  0  0  0  0
   75.0153   41.3130   39.4258 C   0  0  0  0  0  0  0  0  0  0  0  0
   74.9058   42.5215   39.5520 O   0  0  0  0  0  0  0  0  0  0  0  0
   75.9435   40.4971   40.2027 C   0  0  0  0  0  0  0  0  0  0  0  0
   76.8821   40.8832   41.1431 C   0  0  0  0  0  0  0  0  0  0  0  0
   77.5930   39.8685   41.7684 C   0  0  0  0  0  0  0  0  0  0  0  0
   77.3782   38.5317   41.4325 C   0  0  0  0  0  0  0  0  0  0  0  0
   73.2459   40.8240   37.6667 C   0  0  1  0  0  0  0  0  0  0  0  0
   71.9433   41.0580   38.4244 C   0  0  0  0  0  0  0  0  0  0  0  0
   71.6798   40.5201   39.4900 O   0  0  0  0  0  0  0  0  0  0  0  0
   71.0249   41.8726   37.8009 N   0  0  0  0  0  0  0  0  0  0  0  0
   71.1654   42.6097   36.6502 C   0  0  0  0  0  0  0  0  0  0  0  0
   70.3205   43.4157   36.2892 O   0  0  0  0  0  0  0  0  0  0  0  0
   72.4238   42.3433   35.8619 C   0  0  0  0  0  0  0  0  0  0  0  0
   73.5806   42.0356   36.7969 C   0  0  0  0  0  0  0  0  0  0  0  0
   76.8526   36.1035   40.4803 H   0  0  0  0  0  0  0  0  0  0  0  0
   75.5886   36.6000   39.3784 H   0  0  0  0  0  0  0  0  0  0  0  0
   77.0578   41.9258   41.3890 H   0  0  0  0  0  0  0  0  0  0  0  0
   78.3211   40.1193   42.5340 H   0  0  0  0  0  0  0  0  0  0  0  0
   77.9430   37.7660   41.9541 H   0  0  0  0  0  0  0  0  0  0  0  0
   73.0646   39.9608   37.0159 H   0  0  0  0  0  0  0  0  0  0  0  0
   70.1735   42.0387   38.3162 H   0  0  0  0  0  0  0  0  0  0  0  0
   72.2365   41.5114   35.1746 H   0  0  0  0  0  0  0  0  0  0  0  0
   72.6539   43.2320   35.2669 H   0  0  0  0  0  0  0  0  0  0  0  0
   73.7779   42.9200   37.4096 H   0  0  0  0  0  0  0  0  0  0  0  0
   74.4882   41.8494   36.2177 H   0  0  0  0  0  0  0  0  0  0  0  0
  1  2  1  0  0  0  0
  1 21  1  0  0  0  0
  1 22  1  0  0  0  0
  2  3  1  0  0  0  0
  2 12  2  0  0  0  0
  3  9  2  0  0  0  0
  3  4  1  0  0  0  0
  4  5  2  0  0  0  0
  4  6  1  0  0  0  0
  6  7  1  0  0  0  0
 13  6  1  0  0  0  0
  7  8  2  0  0  0  0
  7  9  1  0  0  0  0
  9 10  1  0  0  0  0
 10 23  1  0  0  0  0
 10 11  2  0  0  0  0
 11 12  1  0  0  0  0
 11 24  1  0  0  0  0
 12 25  1  0  0  0  0
 13 26  1  0  0  0  0
 13 14  1  0  0  0  0
 13 20  1  0  0  0  0
 14 15  2  0  0  0  0
 14 16  1  0  0  0  0
 16 27  1  0  0  0  0
 16 17  1  0  0  0  0
 17 18  2  0  0  0  0
 17 19  1  0  0  0  0
 19 28  1  0  0  0  0
 19 29  1  0  0  0  0
 19 20  1  0  0  0  0
 20 30  1  0  0  0  0
 20 31  1  0  0  0  0
M  ZZC   1 n1
M  ZZC   2 c1
M  ZZC   3 c2
M  ZZC   4 c3
M  ZZC   5 o1
M  ZZC   6 n2
M  ZZC   7 c4
M  ZZC   8 o2
M  ZZC   9 c5
M  ZZC  10 c6
M  ZZC  11 c7
M  ZZC  12 c8
M  ZZC  13 c9
M  ZZC  14 c10
M  ZZC  15 o3
M  ZZC  16 n3
M  ZZC  17 c11
M  ZZC  18 o4
M  ZZC  19 c12
M  ZZC  20 c13
M  ZZC  21 h11
M  ZZC  22 h12
M  ZZC  23 h61
M  ZZC  24 h71
M  ZZC  25 h81
M  ZZC  26 h91
M  ZZC  27 h31
M  ZZC  28 h121
M  ZZC  29 h122
M  ZZC  30 h131
M  ZZC  31 h132
M  ZZM   1 40
M  ZZI   1 224
M  ZZM   2 37
M  ZZI   2 124
M  ZZM   3 37
M  ZZI   3 124
M  ZZM   4 3
M  ZZI   4 121
M  ZZM   5 7
M  ZZI   5 81
M  ZZM   6 10
M  ZZI   6 192
M  ZZM   7 3
M  ZZI   7 121
M  ZZM   8 7
M  ZZI   8 81
M  ZZM   9 37
M  ZZI   9 124
M  ZZM  10 37
M  ZZI  10 125
M  ZZM  11 37
M  ZZI  11 125
M  ZZM  12 37
M  ZZI  12 125
M  ZZM  13 1
M  ZZI  13 113
M  ZZM  14 3
M  ZZI  14 121
M  ZZM  15 7
M  ZZI  15 81
M  ZZM  16 10
M  ZZI  16 191
M  ZZM  17 3
M  ZZI  17 121
M  ZZM  18 7
M  ZZI  18 81
M  ZZM  19 1
M  ZZI  19 112
M  ZZM  20 1
M  ZZI  20 112
M  ZZM  21 28
M  ZZI  21 11
M  ZZM  22 28
M  ZZI  22 11
M  ZZM  23 5
M  ZZI  23 1
M  ZZM  24 5
M  ZZI  24 1
M  ZZM  25 5
M  ZZI  25 1
M  ZZM  26 5
M  ZZI  26 1
M  ZZM  27 28
M  ZZI  27 11
M  ZZM  28 5
M  ZZI  28 1
M  ZZM  29 5
M  ZZI  29 1
M  ZZM  30 5
M  ZZI  30 1
M  ZZM  31 5
M  ZZI  31 1
M  END
> <IX>
1

> <NAME>
Cereblon_4QNQ_43.pdb

> <Score>
-15.804376

> <Natom>
31

> <Nflex>
1

> <Hbond>
-3.117703

> <Hphob>
-3.7426

> <VwInt>
-23.305723

> <Dsolv>
14.445289

> <SolEl>
9.471173

> <Eintl>
0.352891

> <RecConf>
ND

> <projPath>
Cereblon_maps/

> <NAME_>
Cereblon_4QNQ_43.pdb

$$$$
