Cereblon_1HWK_32.pdb
  MOLSOFT 04032206193D

 30 32  0  0  1  0  0  0  0  0999 V2000
   75.6905   37.9166   39.7510 C   0  0  0  0  0  0  0  0  0  0  0  0
   74.9930   39.0143   39.2738 C   0  0  0  0  0  0  0  0  0  0  0  0
   75.3024   40.2671   39.7228 C   0  0  0  0  0  0  0  0  0  0  0  0
   74.4141   41.2238   39.0626 C   0  0  0  0  0  0  0  0  0  0  0  0
   74.4174   42.4190   39.3143 O   0  0  0  0  0  0  0  0  0  0  0  0
   73.6387   40.5009   38.1684 N   0  0  0  0  0  0  0  0  0  0  0  0
   72.6067   41.0231   37.2571 C   0  0  1  0  0  0  0  0  0  0  0  0
   71.2847   41.2520   37.9896 C   0  0  0  0  0  0  0  0  0  0  0  0
   70.9219   40.5786   38.9433 O   0  0  0  0  0  0  0  0  0  0  0  0
   70.4529   42.2070   37.4508 N   0  0  0  0  0  0  0  0  0  0  0  0
   70.6651   43.0286   36.3760 C   0  0  0  0  0  0  0  0  0  0  0  0
   69.8658   43.9021   36.0752 O   0  0  0  0  0  0  0  0  0  0  0  0
   71.9231   42.7586   35.5917 C   0  0  0  0  0  0  0  0  0  0  0  0
   73.0398   42.2801   36.5039 C   0  0  0  0  0  0  0  0  0  0  0  0
   73.8847   39.0730   38.2838 C   0  0  0  0  0  0  0  0  0  0  0  0
   76.3073   40.5167   40.6398 C   0  0  0  0  0  0  0  0  0  0  0  0
   77.0099   39.4215   41.1193 C   0  0  0  0  0  0  0  0  0  0  0  0
   76.7032   38.1376   40.6773 C   0  0  0  0  0  0  0  0  0  0  0  0
   75.4640   36.9115   39.4089 H   0  0  0  0  0  0  0  0  0  0  0  0
   72.4141   40.2371   36.5175 H   0  0  0  0  0  0  0  0  0  0  0  0
   69.5814   42.3608   37.9378 H   0  0  0  0  0  0  0  0  0  0  0  0
   71.6983   42.0174   34.8171 H   0  0  0  0  0  0  0  0  0  0  0  0
   72.2225   43.6858   35.0987 H   0  0  0  0  0  0  0  0  0  0  0  0
   73.9412   42.0780   35.9164 H   0  0  0  0  0  0  0  0  0  0  0  0
   73.2953   43.0846   37.1989 H   0  0  0  0  0  0  0  0  0  0  0  0
   74.1786   38.6664   37.3105 H   0  0  0  0  0  0  0  0  0  0  0  0
   72.9837   38.5762   38.6592 H   0  0  0  0  0  0  0  0  0  0  0  0
   76.5465   41.5242   40.9643 H   0  0  0  0  0  0  0  0  0  0  0  0
   77.8067   39.5695   41.8419 H   0  0  0  0  0  0  0  0  0  0  0  0
   77.2682   37.2942   41.0614 H   0  0  0  0  0  0  0  0  0  0  0  0
  1 19  1  0  0  0  0
  1 18  2  0  0  0  0
  1  2  1  0  0  0  0
  2  3  2  0  0  0  0
  2 15  1  0  0  0  0
  3 16  1  0  0  0  0
  3  4  1  0  0  0  0
  4  6  1  0  0  0  0
  4  5  2  0  0  0  0
  6 15  1  0  0  0  0
  7  6  1  0  0  0  0
  7 20  1  0  0  0  0
  7  8  1  0  0  0  0
  7 14  1  0  0  0  0
  8  9  2  0  0  0  0
  8 10  1  0  0  0  0
 10 21  1  0  0  0  0
 10 11  1  0  0  0  0
 11 12  2  0  0  0  0
 11 13  1  0  0  0  0
 13 22  1  0  0  0  0
 13 23  1  0  0  0  0
 13 14  1  0  0  0  0
 14 24  1  0  0  0  0
 14 25  1  0  0  0  0
 15 26  1  0  0  0  0
 15 27  1  0  0  0  0
 16 17  2  0  0  0  0
 16 28  1  0  0  0  0
 17 18  1  0  0  0  0
 17 29  1  0  0  0  0
 18 30  1  0  0  0  0
M  ZZC   1 c1
M  ZZC   2 c2
M  ZZC   3 c3
M  ZZC   4 c4
M  ZZC   5 o1
M  ZZC   6 n1
M  ZZC   7 c5
M  ZZC   8 c6
M  ZZC   9 o2
M  ZZC  10 n2
M  ZZC  11 c7
M  ZZC  12 o3
M  ZZC  13 c8
M  ZZC  14 c9
M  ZZC  15 c10
M  ZZC  16 c11
M  ZZC  17 c12
M  ZZC  18 c13
M  ZZC  19 h11
M  ZZC  20 h51
M  ZZC  21 h21
M  ZZC  22 h81
M  ZZC  23 h82
M  ZZC  24 h91
M  ZZC  25 h92
M  ZZC  26 h101
M  ZZC  27 h102
M  ZZC  28 h111
M  ZZC  29 h121
M  ZZC  30 h131
M  ZZM   1 37
M  ZZI   1 125
M  ZZM   2 37
M  ZZI   2 124
M  ZZM   3 37
M  ZZI   3 124
M  ZZM   4 3
M  ZZI   4 121
M  ZZM   5 7
M  ZZI   5 81
M  ZZM   6 10
M  ZZI   6 192
M  ZZM   7 1
M  ZZI   7 113
M  ZZM   8 3
M  ZZI   8 121
M  ZZM   9 7
M  ZZI   9 81
M  ZZM  10 10
M  ZZI  10 191
M  ZZM  11 3
M  ZZI  11 121
M  ZZM  12 7
M  ZZI  12 81
M  ZZM  13 1
M  ZZI  13 112
M  ZZM  14 1
M  ZZI  14 112
M  ZZM  15 1
M  ZZI  15 112
M  ZZM  16 37
M  ZZI  16 125
M  ZZM  17 37
M  ZZI  17 125
M  ZZM  18 37
M  ZZI  18 125
M  ZZM  19 5
M  ZZI  19 1
M  ZZM  20 5
M  ZZI  20 1
M  ZZM  21 28
M  ZZI  21 11
M  ZZM  22 5
M  ZZI  22 1
M  ZZM  23 5
M  ZZI  23 1
M  ZZM  24 5
M  ZZI  24 1
M  ZZM  25 5
M  ZZI  25 1
M  ZZM  26 5
M  ZZI  26 1
M  ZZM  27 5
M  ZZI  27 1
M  ZZM  28 5
M  ZZI  28 1
M  ZZM  29 5
M  ZZI  29 1
M  ZZM  30 5
M  ZZI  30 1
M  END
> <IX>
1

> <NAME>
Cereblon_1HWK_32.pdb

> <Score>
-20.568521

> <Natom>
30

> <Nflex>
1

> <Hbond>
-4.630557

> <Hphob>
-3.564426

> <VwInt>
-21.898668

> <Dsolv>
13.310638

> <SolEl>
5.803398

> <Eintl>
1.700665

> <RecConf>
ND

> <projPath>
Cereblon_maps/

> <NAME_>
Cereblon_1HWK_32.pdb

$$$$
