Cereblon_6QJU_4.pdb
  MOLSOFT 04032206293D

 30 32  0  0  1  0  0  0  0  0999 V2000
   78.9659   42.3522   42.8088 C   0  0  0  0  0  0  0  0  0  0  0  0
   78.1584   42.0589   41.7224 C   0  0  0  0  0  0  0  0  0  0  0  0
   78.1645   42.8654   40.6150 C   0  0  0  0  0  0  0  0  0  0  0  0
   77.2340   42.3045   39.6278 C   0  0  0  0  0  0  0  0  0  0  0  0
   77.0144   42.7713   38.5175 O   0  0  0  0  0  0  0  0  0  0  0  0
   76.7097   41.1598   40.1964 N   0  0  0  0  0  0  0  0  0  0  0  0
   75.6962   40.3317   39.5379 C   0  0  2  0  0  0  0  0  0  0  0  0
   74.3128   40.9157   39.7961 C   0  0  0  0  0  0  0  0  0  0  0  0
   74.1243   42.1037   40.0008 O   0  0  0  0  0  0  0  0  0  0  0  0
   73.2580   40.0400   39.7133 N   0  0  0  0  0  0  0  0  0  0  0  0
   73.2901   38.6900   39.4660 C   0  0  0  0  0  0  0  0  0  0  0  0
   72.2709   38.0215   39.4135 O   0  0  0  0  0  0  0  0  0  0  0  0
   74.6529   38.0954   39.2117 C   0  0  0  0  0  0  0  0  0  0  0  0
   75.7356   38.8642   39.9476 C   0  0  0  0  0  0  0  0  0  0  0  0
   77.2343   40.9135   41.5299 C   0  0  0  0  0  0  0  0  0  0  0  0
   78.9690   43.9828   40.5066 C   0  0  0  0  0  0  0  0  0  0  0  0
   79.7912   44.2742   41.5863 C   0  0  0  0  0  0  0  0  0  0  0  0
   79.7885   43.4692   42.7234 C   0  0  0  0  0  0  0  0  0  0  0  0
   78.9672   41.7263   43.6965 H   0  0  0  0  0  0  0  0  0  0  0  0
   75.8608   40.4217   38.4619 H   0  0  0  0  0  0  0  0  0  0  0  0
   72.3407   40.4433   39.8579 H   0  0  0  0  0  0  0  0  0  0  0  0
   74.6481   37.0536   39.5477 H   0  0  0  0  0  0  0  0  0  0  0  0
   74.8269   38.1026   38.1311 H   0  0  0  0  0  0  0  0  0  0  0  0
   75.5813   38.7603   41.0263 H   0  0  0  0  0  0  0  0  0  0  0  0
   76.7174   38.4332   39.7253 H   0  0  0  0  0  0  0  0  0  0  0  0
   77.7762   39.9619   41.5424 H   0  0  0  0  0  0  0  0  0  0  0  0
   76.4254   40.9142   42.2635 H   0  0  0  0  0  0  0  0  0  0  0  0
   78.9552   44.6023   39.6172 H   0  0  0  0  0  0  0  0  0  0  0  0
   80.4380   45.1433   41.5476 H   0  0  0  0  0  0  0  0  0  0  0  0
   80.4393   43.7181   43.5565 H   0  0  0  0  0  0  0  0  0  0  0  0
  1 19  1  0  0  0  0
  1 18  2  0  0  0  0
  1  2  1  0  0  0  0
  2  3  2  0  0  0  0
  2 15  1  0  0  0  0
  3 16  1  0  0  0  0
  3  4  1  0  0  0  0
  4  6  1  0  0  0  0
  4  5  2  0  0  0  0
  6 15  1  0  0  0  0
  7  6  1  0  0  0  0
  7 20  1  0  0  0  0
  7  8  1  0  0  0  0
  7 14  1  0  0  0  0
  8  9  2  0  0  0  0
  8 10  1  0  0  0  0
 10 21  1  0  0  0  0
 10 11  1  0  0  0  0
 11 12  2  0  0  0  0
 11 13  1  0  0  0  0
 13 22  1  0  0  0  0
 13 23  1  0  0  0  0
 13 14  1  0  0  0  0
 14 24  1  0  0  0  0
 14 25  1  0  0  0  0
 15 26  1  0  0  0  0
 15 27  1  0  0  0  0
 16 17  2  0  0  0  0
 16 28  1  0  0  0  0
 17 18  1  0  0  0  0
 17 29  1  0  0  0  0
 18 30  1  0  0  0  0
M  ZZC   1 c1
M  ZZC   2 c2
M  ZZC   3 c3
M  ZZC   4 c4
M  ZZC   5 o1
M  ZZC   6 n1
M  ZZC   7 c5
M  ZZC   8 c6
M  ZZC   9 o2
M  ZZC  10 n2
M  ZZC  11 c7
M  ZZC  12 o3
M  ZZC  13 c8
M  ZZC  14 c9
M  ZZC  15 c10
M  ZZC  16 c11
M  ZZC  17 c12
M  ZZC  18 c13
M  ZZC  19 h11
M  ZZC  20 h51
M  ZZC  21 h21
M  ZZC  22 h81
M  ZZC  23 h82
M  ZZC  24 h91
M  ZZC  25 h92
M  ZZC  26 h101
M  ZZC  27 h102
M  ZZC  28 h111
M  ZZC  29 h121
M  ZZC  30 h131
M  ZZM   1 37
M  ZZI   1 125
M  ZZM   2 37
M  ZZI   2 124
M  ZZM   3 37
M  ZZI   3 124
M  ZZM   4 3
M  ZZI   4 121
M  ZZM   5 7
M  ZZI   5 81
M  ZZM   6 10
M  ZZI   6 192
M  ZZM   7 1
M  ZZI   7 113
M  ZZM   8 3
M  ZZI   8 121
M  ZZM   9 7
M  ZZI   9 81
M  ZZM  10 10
M  ZZI  10 191
M  ZZM  11 3
M  ZZI  11 121
M  ZZM  12 7
M  ZZI  12 81
M  ZZM  13 1
M  ZZI  13 112
M  ZZM  14 1
M  ZZI  14 112
M  ZZM  15 1
M  ZZI  15 112
M  ZZM  16 37
M  ZZI  16 125
M  ZZM  17 37
M  ZZI  17 125
M  ZZM  18 37
M  ZZI  18 125
M  ZZM  19 5
M  ZZI  19 1
M  ZZM  20 5
M  ZZI  20 1
M  ZZM  21 28
M  ZZI  21 11
M  ZZM  22 5
M  ZZI  22 1
M  ZZM  23 5
M  ZZI  23 1
M  ZZM  24 5
M  ZZI  24 1
M  ZZM  25 5
M  ZZI  25 1
M  ZZM  26 5
M  ZZI  26 1
M  ZZM  27 5
M  ZZI  27 1
M  ZZM  28 5
M  ZZI  28 1
M  ZZM  29 5
M  ZZI  29 1
M  ZZM  30 5
M  ZZI  30 1
M  END
> <IX>
1

> <NAME>
Cereblon_6QJU_4.pdb

> <Score>
-18.822133

> <Natom>
30

> <Nflex>
1

> <Hbond>
-3.264269

> <Hphob>
-3.913427

> <VwInt>
-21.084301

> <Dsolv>
11.054512

> <SolEl>
5.481488

> <Eintl>
1.056829

> <RecConf>
ND

> <projPath>
Cereblon_maps/

> <NAME_>
Cereblon_6QJU_4.pdb

$$$$
