Cereblon_3MXF_36.pdb
  MOLSOFT 04032206223D

 30 32  0  0  1  0  0  0  0  0999 V2000
   75.6853   37.9132   39.7454 C   0  0  0  0  0  0  0  0  0  0  0  0
   74.9886   39.0120   39.2708 C   0  0  0  0  0  0  0  0  0  0  0  0
   75.3007   40.2637   39.7202 C   0  0  0  0  0  0  0  0  0  0  0  0
   74.4113   41.2223   39.0625 C   0  0  0  0  0  0  0  0  0  0  0  0
   74.4170   42.4175   39.3145 O   0  0  0  0  0  0  0  0  0  0  0  0
   73.6330   40.5008   38.1697 N   0  0  0  0  0  0  0  0  0  0  0  0
   72.6019   41.0238   37.2580 C   0  0  1  0  0  0  0  0  0  0  0  0
   71.2819   41.2545   37.9922 C   0  0  0  0  0  0  0  0  0  0  0  0
   70.9189   40.5826   38.9470 O   0  0  0  0  0  0  0  0  0  0  0  0
   70.4502   42.2102   37.4546 N   0  0  0  0  0  0  0  0  0  0  0  0
   70.6604   43.0298   36.3778 C   0  0  0  0  0  0  0  0  0  0  0  0
   69.8584   43.9007   36.0767 O   0  0  0  0  0  0  0  0  0  0  0  0
   71.9178   42.7594   35.5917 C   0  0  0  0  0  0  0  0  0  0  0  0
   73.0353   42.2806   36.5040 C   0  0  0  0  0  0  0  0  0  0  0  0
   73.8797   39.0730   38.2818 C   0  0  0  0  0  0  0  0  0  0  0  0
   76.3075   40.5112   40.6354 C   0  0  0  0  0  0  0  0  0  0  0  0
   77.0098   39.4148   41.1125 C   0  0  0  0  0  0  0  0  0  0  0  0
   76.7002   38.1313   40.6703 C   0  0  0  0  0  0  0  0  0  0  0  0
   75.4550   36.9087   39.4043 H   0  0  0  0  0  0  0  0  0  0  0  0
   72.4075   40.2379   36.5187 H   0  0  0  0  0  0  0  0  0  0  0  0
   69.5800   42.3640   37.9419 H   0  0  0  0  0  0  0  0  0  0  0  0
   71.6918   42.0178   34.8180 H   0  0  0  0  0  0  0  0  0  0  0  0
   72.2167   43.6865   35.0984 H   0  0  0  0  0  0  0  0  0  0  0  0
   73.9357   42.0764   35.9157 H   0  0  0  0  0  0  0  0  0  0  0  0
   73.2922   43.0860   37.1978 H   0  0  0  0  0  0  0  0  0  0  0  0
   74.1727   38.6688   37.3072 H   0  0  0  0  0  0  0  0  0  0  0  0
   72.9792   38.5744   38.6563 H   0  0  0  0  0  0  0  0  0  0  0  0
   76.5487   41.5181   40.9606 H   0  0  0  0  0  0  0  0  0  0  0  0
   77.8085   39.5608   41.8334 H   0  0  0  0  0  0  0  0  0  0  0  0
   77.2636   37.2866   41.0538 H   0  0  0  0  0  0  0  0  0  0  0  0
  1 19  1  0  0  0  0
  1 18  2  0  0  0  0
  1  2  1  0  0  0  0
  2  3  2  0  0  0  0
  2 15  1  0  0  0  0
  3 16  1  0  0  0  0
  3  4  1  0  0  0  0
  4  6  1  0  0  0  0
  4  5  2  0  0  0  0
  6 15  1  0  0  0  0
  7  6  1  0  0  0  0
  7 20  1  0  0  0  0
  7  8  1  0  0  0  0
  7 14  1  0  0  0  0
  8  9  2  0  0  0  0
  8 10  1  0  0  0  0
 10 21  1  0  0  0  0
 10 11  1  0  0  0  0
 11 12  2  0  0  0  0
 11 13  1  0  0  0  0
 13 22  1  0  0  0  0
 13 23  1  0  0  0  0
 13 14  1  0  0  0  0
 14 24  1  0  0  0  0
 14 25  1  0  0  0  0
 15 26  1  0  0  0  0
 15 27  1  0  0  0  0
 16 17  2  0  0  0  0
 16 28  1  0  0  0  0
 17 18  1  0  0  0  0
 17 29  1  0  0  0  0
 18 30  1  0  0  0  0
M  ZZC   1 c1
M  ZZC   2 c2
M  ZZC   3 c3
M  ZZC   4 c4
M  ZZC   5 o1
M  ZZC   6 n1
M  ZZC   7 c5
M  ZZC   8 c6
M  ZZC   9 o2
M  ZZC  10 n2
M  ZZC  11 c7
M  ZZC  12 o3
M  ZZC  13 c8
M  ZZC  14 c9
M  ZZC  15 c10
M  ZZC  16 c11
M  ZZC  17 c12
M  ZZC  18 c13
M  ZZC  19 h11
M  ZZC  20 h51
M  ZZC  21 h21
M  ZZC  22 h81
M  ZZC  23 h82
M  ZZC  24 h91
M  ZZC  25 h92
M  ZZC  26 h101
M  ZZC  27 h102
M  ZZC  28 h111
M  ZZC  29 h121
M  ZZC  30 h131
M  ZZM   1 37
M  ZZI   1 125
M  ZZM   2 37
M  ZZI   2 124
M  ZZM   3 37
M  ZZI   3 124
M  ZZM   4 3
M  ZZI   4 121
M  ZZM   5 7
M  ZZI   5 81
M  ZZM   6 10
M  ZZI   6 192
M  ZZM   7 1
M  ZZI   7 113
M  ZZM   8 3
M  ZZI   8 121
M  ZZM   9 7
M  ZZI   9 81
M  ZZM  10 10
M  ZZI  10 191
M  ZZM  11 3
M  ZZI  11 121
M  ZZM  12 7
M  ZZI  12 81
M  ZZM  13 1
M  ZZI  13 112
M  ZZM  14 1
M  ZZI  14 112
M  ZZM  15 1
M  ZZI  15 112
M  ZZM  16 37
M  ZZI  16 125
M  ZZM  17 37
M  ZZI  17 125
M  ZZM  18 37
M  ZZI  18 125
M  ZZM  19 5
M  ZZI  19 1
M  ZZM  20 5
M  ZZI  20 1
M  ZZM  21 28
M  ZZI  21 11
M  ZZM  22 5
M  ZZI  22 1
M  ZZM  23 5
M  ZZI  23 1
M  ZZM  24 5
M  ZZI  24 1
M  ZZM  25 5
M  ZZI  25 1
M  ZZM  26 5
M  ZZI  26 1
M  ZZM  27 5
M  ZZI  27 1
M  ZZM  28 5
M  ZZI  28 1
M  ZZM  29 5
M  ZZI  29 1
M  ZZM  30 5
M  ZZI  30 1
M  END
> <IX>
1

> <NAME>
Cereblon_3MXF_36.pdb

> <Score>
-20.778062

> <Natom>
30

> <Nflex>
1

> <Hbond>
-4.621198

> <Hphob>
-3.614008

> <VwInt>
-21.976791

> <Dsolv>
13.241067

> <SolEl>
5.703621

> <Eintl>
1.694256

> <RecConf>
ND

> <projPath>
Cereblon_maps/

> <NAME_>
Cereblon_3MXF_36.pdb

$$$$
