Cereblon_3IKA_3.pdb
  MOLSOFT 04032206213D

 30 32  0  0  1  0  0  0  0  0999 V2000
   78.9589   42.3484   42.8088 C   0  0  0  0  0  0  0  0  0  0  0  0
   78.1533   42.0553   41.7211 C   0  0  0  0  0  0  0  0  0  0  0  0
   78.1614   42.8615   40.6136 C   0  0  0  0  0  0  0  0  0  0  0  0
   77.2324   42.3013   39.6254 C   0  0  0  0  0  0  0  0  0  0  0  0
   77.0145   42.7684   38.5149 O   0  0  0  0  0  0  0  0  0  0  0  0
   76.7070   41.1566   40.1930 N   0  0  0  0  0  0  0  0  0  0  0  0
   75.6922   40.3302   39.5345 C   0  0  2  0  0  0  0  0  0  0  0  0
   74.3100   40.9164   39.7940 C   0  0  0  0  0  0  0  0  0  0  0  0
   74.1240   42.1041   40.0024 O   0  0  0  0  0  0  0  0  0  0  0  0
   73.2535   40.0430   39.7080 N   0  0  0  0  0  0  0  0  0  0  0  0
   73.2832   38.6939   39.4558 C   0  0  0  0  0  0  0  0  0  0  0  0
   72.2623   38.0285   39.3955 O   0  0  0  0  0  0  0  0  0  0  0  0
   74.6455   38.0963   39.2047 C   0  0  0  0  0  0  0  0  0  0  0  0
   75.7285   38.8625   39.9432 C   0  0  0  0  0  0  0  0  0  0  0  0
   77.2295   40.9101   41.5273 C   0  0  0  0  0  0  0  0  0  0  0  0
   78.9674   43.9780   40.5062 C   0  0  0  0  0  0  0  0  0  0  0  0
   79.7878   44.2691   41.5874 C   0  0  0  0  0  0  0  0  0  0  0  0
   79.7820   43.4652   42.7253 C   0  0  0  0  0  0  0  0  0  0  0  0
   78.9582   41.7231   43.6970 H   0  0  0  0  0  0  0  0  0  0  0  0
   75.8562   40.4211   38.4586 H   0  0  0  0  0  0  0  0  0  0  0  0
   72.3368   40.4480   39.8515 H   0  0  0  0  0  0  0  0  0  0  0  0
   74.6380   37.0542   39.5397 H   0  0  0  0  0  0  0  0  0  0  0  0
   74.8227   38.1046   38.1246 H   0  0  0  0  0  0  0  0  0  0  0  0
   75.5716   38.7578   41.0215 H   0  0  0  0  0  0  0  0  0  0  0  0
   76.7098   38.4293   39.7230 H   0  0  0  0  0  0  0  0  0  0  0  0
   77.7719   39.9586   41.5399 H   0  0  0  0  0  0  0  0  0  0  0  0
   76.4198   40.9101   42.2599 H   0  0  0  0  0  0  0  0  0  0  0  0
   78.9558   44.5973   39.6167 H   0  0  0  0  0  0  0  0  0  0  0  0
   80.4356   45.1375   41.5492 H   0  0  0  0  0  0  0  0  0  0  0  0
   80.4308   43.7145   43.5599 H   0  0  0  0  0  0  0  0  0  0  0  0
  1 19  1  0  0  0  0
  1 18  2  0  0  0  0
  1  2  1  0  0  0  0
  2  3  2  0  0  0  0
  2 15  1  0  0  0  0
  3 16  1  0  0  0  0
  3  4  1  0  0  0  0
  4  6  1  0  0  0  0
  4  5  2  0  0  0  0
  6 15  1  0  0  0  0
  7  6  1  0  0  0  0
  7 20  1  0  0  0  0
  7  8  1  0  0  0  0
  7 14  1  0  0  0  0
  8  9  2  0  0  0  0
  8 10  1  0  0  0  0
 10 21  1  0  0  0  0
 10 11  1  0  0  0  0
 11 12  2  0  0  0  0
 11 13  1  0  0  0  0
 13 22  1  0  0  0  0
 13 23  1  0  0  0  0
 13 14  1  0  0  0  0
 14 24  1  0  0  0  0
 14 25  1  0  0  0  0
 15 26  1  0  0  0  0
 15 27  1  0  0  0  0
 16 17  2  0  0  0  0
 16 28  1  0  0  0  0
 17 18  1  0  0  0  0
 17 29  1  0  0  0  0
 18 30  1  0  0  0  0
M  ZZC   1 c1
M  ZZC   2 c2
M  ZZC   3 c3
M  ZZC   4 c4
M  ZZC   5 o1
M  ZZC   6 n1
M  ZZC   7 c5
M  ZZC   8 c6
M  ZZC   9 o2
M  ZZC  10 n2
M  ZZC  11 c7
M  ZZC  12 o3
M  ZZC  13 c8
M  ZZC  14 c9
M  ZZC  15 c10
M  ZZC  16 c11
M  ZZC  17 c12
M  ZZC  18 c13
M  ZZC  19 h11
M  ZZC  20 h51
M  ZZC  21 h21
M  ZZC  22 h81
M  ZZC  23 h82
M  ZZC  24 h91
M  ZZC  25 h92
M  ZZC  26 h101
M  ZZC  27 h102
M  ZZC  28 h111
M  ZZC  29 h121
M  ZZC  30 h131
M  ZZM   1 37
M  ZZI   1 125
M  ZZM   2 37
M  ZZI   2 124
M  ZZM   3 37
M  ZZI   3 124
M  ZZM   4 3
M  ZZI   4 121
M  ZZM   5 7
M  ZZI   5 81
M  ZZM   6 10
M  ZZI   6 192
M  ZZM   7 1
M  ZZI   7 113
M  ZZM   8 3
M  ZZI   8 121
M  ZZM   9 7
M  ZZI   9 81
M  ZZM  10 10
M  ZZI  10 191
M  ZZM  11 3
M  ZZI  11 121
M  ZZM  12 7
M  ZZI  12 81
M  ZZM  13 1
M  ZZI  13 112
M  ZZM  14 1
M  ZZI  14 112
M  ZZM  15 1
M  ZZI  15 112
M  ZZM  16 37
M  ZZI  16 125
M  ZZM  17 37
M  ZZI  17 125
M  ZZM  18 37
M  ZZI  18 125
M  ZZM  19 5
M  ZZI  19 1
M  ZZM  20 5
M  ZZI  20 1
M  ZZM  21 28
M  ZZI  21 11
M  ZZM  22 5
M  ZZI  22 1
M  ZZM  23 5
M  ZZI  23 1
M  ZZM  24 5
M  ZZI  24 1
M  ZZM  25 5
M  ZZI  25 1
M  ZZM  26 5
M  ZZI  26 1
M  ZZM  27 5
M  ZZI  27 1
M  ZZM  28 5
M  ZZI  28 1
M  ZZM  29 5
M  ZZI  29 1
M  ZZM  30 5
M  ZZI  30 1
M  END
> <IX>
1

> <NAME>
Cereblon_3IKA_3.pdb

> <Score>
-18.814475

> <Natom>
30

> <Nflex>
1

> <Hbond>
-3.268668

> <Hphob>
-3.911319

> <VwInt>
-21.06472

> <Dsolv>
11.021539

> <SolEl>
5.523326

> <Eintl>
1.048349

> <RecConf>
ND

> <projPath>
Cereblon_maps/

> <NAME_>
Cereblon_3IKA_3.pdb

$$$$
