Cereblon_4QNQ_40.pdb
  MOLSOFT 04032206233D

 31 33  0  0  1  0  0  0  0  0999 V2000
   76.8767   41.5661   40.9116 N   0  0  0  0  0  0  0  0  0  0  0  0
   76.4331   40.3153   40.4571 C   0  0  0  0  0  0  0  0  0  0  0  0
   75.3424   40.1704   39.6117 C   0  0  0  0  0  0  0  0  0  0  0  0
   74.4893   41.1851   38.9900 C   0  0  0  0  0  0  0  0  0  0  0  0
   74.5462   42.3703   39.2865 O   0  0  0  0  0  0  0  0  0  0  0  0
   73.6509   40.5112   38.1180 N   0  0  0  0  0  0  0  0  0  0  0  0
   73.8292   39.1478   38.2338 C   0  0  0  0  0  0  0  0  0  0  0  0
   73.2372   38.2361   37.6743 O   0  0  0  0  0  0  0  0  0  0  0  0
   74.9157   38.9487   39.1886 C   0  0  0  0  0  0  0  0  0  0  0  0
   75.4926   37.7710   39.6249 C   0  0  0  0  0  0  0  0  0  0  0  0
   76.5459   37.8863   40.5217 C   0  0  0  0  0  0  0  0  0  0  0  0
   77.0006   39.1379   40.9350 C   0  0  0  0  0  0  0  0  0  0  0  0
   72.6232   41.0924   37.2413 C   0  0  1  0  0  0  0  0  0  0  0  0
   71.3256   41.3112   38.0113 C   0  0  0  0  0  0  0  0  0  0  0  0
   71.0156   40.6671   39.0028 O   0  0  0  0  0  0  0  0  0  0  0  0
   70.4568   42.2288   37.4671 N   0  0  0  0  0  0  0  0  0  0  0  0
   70.6517   43.0764   36.4084 C   0  0  0  0  0  0  0  0  0  0  0  0
   69.8214   43.9225   36.1140 O   0  0  0  0  0  0  0  0  0  0  0  0
   71.9327   42.8790   35.6367 C   0  0  0  0  0  0  0  0  0  0  0  0
   73.0531   42.3758   36.5344 C   0  0  0  0  0  0  0  0  0  0  0  0
   77.8142   41.6233   41.3028 H   0  0  0  0  0  0  0  0  0  0  0  0
   76.5304   42.3942   40.4271 H   0  0  0  0  0  0  0  0  0  0  0  0
   75.1407   36.8019   39.2833 H   0  0  0  0  0  0  0  0  0  0  0  0
   77.0256   36.9899   40.9027 H   0  0  0  0  0  0  0  0  0  0  0  0
   77.8240   39.1916   41.6404 H   0  0  0  0  0  0  0  0  0  0  0  0
   72.3884   40.3402   36.4790 H   0  0  0  0  0  0  0  0  0  0  0  0
   69.5835   42.3568   37.9568 H   0  0  0  0  0  0  0  0  0  0  0  0
   71.7384   42.1786   34.8175 H   0  0  0  0  0  0  0  0  0  0  0  0
   72.2156   43.8407   35.2038 H   0  0  0  0  0  0  0  0  0  0  0  0
   73.3048   43.1565   37.2570 H   0  0  0  0  0  0  0  0  0  0  0  0
   73.9555   42.1978   35.9408 H   0  0  0  0  0  0  0  0  0  0  0  0
  1  2  1  0  0  0  0
  1 21  1  0  0  0  0
  1 22  1  0  0  0  0
  2  3  1  0  0  0  0
  2 12  2  0  0  0  0
  3  9  2  0  0  0  0
  3  4  1  0  0  0  0
  4  5  2  0  0  0  0
  4  6  1  0  0  0  0
  6  7  1  0  0  0  0
 13  6  1  0  0  0  0
  7  8  2  0  0  0  0
  7  9  1  0  0  0  0
  9 10  1  0  0  0  0
 10 23  1  0  0  0  0
 10 11  2  0  0  0  0
 11 12  1  0  0  0  0
 11 24  1  0  0  0  0
 12 25  1  0  0  0  0
 13 26  1  0  0  0  0
 13 14  1  0  0  0  0
 13 20  1  0  0  0  0
 14 15  2  0  0  0  0
 14 16  1  0  0  0  0
 16 27  1  0  0  0  0
 16 17  1  0  0  0  0
 17 18  2  0  0  0  0
 17 19  1  0  0  0  0
 19 28  1  0  0  0  0
 19 29  1  0  0  0  0
 19 20  1  0  0  0  0
 20 30  1  0  0  0  0
 20 31  1  0  0  0  0
M  ZZC   1 n1
M  ZZC   2 c1
M  ZZC   3 c2
M  ZZC   4 c3
M  ZZC   5 o1
M  ZZC   6 n2
M  ZZC   7 c4
M  ZZC   8 o2
M  ZZC   9 c5
M  ZZC  10 c6
M  ZZC  11 c7
M  ZZC  12 c8
M  ZZC  13 c9
M  ZZC  14 c10
M  ZZC  15 o3
M  ZZC  16 n3
M  ZZC  17 c11
M  ZZC  18 o4
M  ZZC  19 c12
M  ZZC  20 c13
M  ZZC  21 h11
M  ZZC  22 h12
M  ZZC  23 h61
M  ZZC  24 h71
M  ZZC  25 h81
M  ZZC  26 h91
M  ZZC  27 h31
M  ZZC  28 h121
M  ZZC  29 h122
M  ZZC  30 h131
M  ZZC  31 h132
M  ZZM   1 40
M  ZZI   1 224
M  ZZM   2 37
M  ZZI   2 124
M  ZZM   3 37
M  ZZI   3 124
M  ZZM   4 3
M  ZZI   4 121
M  ZZM   5 7
M  ZZI   5 81
M  ZZM   6 10
M  ZZI   6 192
M  ZZM   7 3
M  ZZI   7 121
M  ZZM   8 7
M  ZZI   8 81
M  ZZM   9 37
M  ZZI   9 124
M  ZZM  10 37
M  ZZI  10 125
M  ZZM  11 37
M  ZZI  11 125
M  ZZM  12 37
M  ZZI  12 125
M  ZZM  13 1
M  ZZI  13 113
M  ZZM  14 3
M  ZZI  14 121
M  ZZM  15 7
M  ZZI  15 81
M  ZZM  16 10
M  ZZI  16 191
M  ZZM  17 3
M  ZZI  17 121
M  ZZM  18 7
M  ZZI  18 81
M  ZZM  19 1
M  ZZI  19 112
M  ZZM  20 1
M  ZZI  20 112
M  ZZM  21 28
M  ZZI  21 11
M  ZZM  22 28
M  ZZI  22 11
M  ZZM  23 5
M  ZZI  23 1
M  ZZM  24 5
M  ZZI  24 1
M  ZZM  25 5
M  ZZI  25 1
M  ZZM  26 5
M  ZZI  26 1
M  ZZM  27 28
M  ZZI  27 11
M  ZZM  28 5
M  ZZI  28 1
M  ZZM  29 5
M  ZZI  29 1
M  ZZM  30 5
M  ZZI  30 1
M  ZZM  31 5
M  ZZI  31 1
M  END
> <IX>
1

> <NAME>
Cereblon_4QNQ_40.pdb

> <Score>
-19.511817

> <Natom>
31

> <Nflex>
1

> <Hbond>
-4.884704

> <Hphob>
-3.438871

> <VwInt>
-24.17354

> <Dsolv>
15.772254

> <SolEl>
9.292397

> <Eintl>
1.269824

> <RecConf>
ND

> <projPath>
Cereblon_maps/

> <NAME_>
Cereblon_4QNQ_40.pdb

$$$$
