Cereblon_3LQ5_18.pdb
  MOLSOFT 04032206213D

 29 31  0  0  1  0  0  0  0  0999 V2000
   81.5910   53.9091   19.7900 C   0  0  0  0  0  0  0  0  0  0  0  0
   80.9488   54.8873   20.5280 C   0  0  0  0  0  0  0  0  0  0  0  0
   79.7742   54.7911   21.3899 C   0  0  0  0  0  0  0  0  0  0  0  0
   79.1659   53.7537   21.6106 O   0  0  0  0  0  0  0  0  0  0  0  0
   79.5623   56.0576   21.8955 N   0  0  0  0  0  0  0  0  0  0  0  0
   80.5053   56.9461   21.4271 C   0  0  0  0  0  0  0  0  0  0  0  0
   80.6430   58.1391   21.6556 O   0  0  0  0  0  0  0  0  0  0  0  0
   81.3826   56.1782   20.5507 C   0  0  0  0  0  0  0  0  0  0  0  0
   82.4877   56.5962   19.8373 C   0  0  0  0  0  0  0  0  0  0  0  0
   83.1430   55.6315   19.0855 C   0  0  0  0  0  0  0  0  0  0  0  0
   82.7061   54.3062   19.0617 C   0  0  0  0  0  0  0  0  0  0  0  0
   78.4712   56.3795   22.8136 C   0  0  2  0  0  0  0  0  0  0  0  0
   77.3545   57.1200   22.1055 C   0  0  0  0  0  0  0  0  0  0  0  0
   77.1929   57.1051   20.8943 O   0  0  0  0  0  0  0  0  0  0  0  0
   76.4669   57.7478   22.9472 N   0  0  0  0  0  0  0  0  0  0  0  0
   76.5052   57.8501   24.3173 C   0  0  0  0  0  0  0  0  0  0  0  0
   75.5891   58.3496   24.9502 O   0  0  0  0  0  0  0  0  0  0  0  0
   77.7209   57.2645   24.9963 C   0  0  0  0  0  0  0  0  0  0  0  0
   78.8946   57.1824   24.0398 C   0  0  0  0  0  0  0  0  0  0  0  0
   81.2380   52.8820   19.7730 H   0  0  0  0  0  0  0  0  0  0  0  0
   82.8303   57.6263   19.8638 H   0  0  0  0  0  0  0  0  0  0  0  0
   84.0131   55.9230   18.5091 H   0  0  0  0  0  0  0  0  0  0  0  0
   83.2431   53.5754   18.4640 H   0  0  0  0  0  0  0  0  0  0  0  0
   78.0342   55.4309   23.1310 H   0  0  0  0  0  0  0  0  0  0  0  0
   75.6849   58.2027   22.4957 H   0  0  0  0  0  0  0  0  0  0  0  0
   77.9831   57.8892   25.8562 H   0  0  0  0  0  0  0  0  0  0  0  0
   77.4608   56.2698   25.3658 H   0  0  0  0  0  0  0  0  0  0  0  0
   79.7477   56.7154   24.5389 H   0  0  0  0  0  0  0  0  0  0  0  0
   79.2058   58.1948   23.7603 H   0  0  0  0  0  0  0  0  0  0  0  0
  1 20  1  0  0  0  0
  1  2  1  0  0  0  0
  1 11  2  0  0  0  0
  2  3  1  0  0  0  0
  2  8  2  0  0  0  0
  3  4  2  0  0  0  0
  3  5  1  0  0  0  0
  5  6  1  0  0  0  0
 12  5  1  0  0  0  0
  6  7  2  0  0  0  0
  6  8  1  0  0  0  0
  8  9  1  0  0  0  0
  9 21  1  0  0  0  0
  9 10  2  0  0  0  0
 10 22  1  0  0  0  0
 10 11  1  0  0  0  0
 11 23  1  0  0  0  0
 12 24  1  0  0  0  0
 12 13  1  0  0  0  0
 12 19  1  0  0  0  0
 13 14  2  0  0  0  0
 13 15  1  0  0  0  0
 15 25  1  0  0  0  0
 15 16  1  0  0  0  0
 16 17  2  0  0  0  0
 16 18  1  0  0  0  0
 18 26  1  0  0  0  0
 18 27  1  0  0  0  0
 18 19  1  0  0  0  0
 19 28  1  0  0  0  0
 19 29  1  0  0  0  0
M  ZZC   1 c1
M  ZZC   2 c2
M  ZZC   3 c3
M  ZZC   4 o1
M  ZZC   5 n1
M  ZZC   6 c4
M  ZZC   7 o2
M  ZZC   8 c5
M  ZZC   9 c6
M  ZZC  10 c7
M  ZZC  11 c8
M  ZZC  12 c9
M  ZZC  13 c10
M  ZZC  14 o3
M  ZZC  15 n2
M  ZZC  16 c11
M  ZZC  17 o4
M  ZZC  18 c12
M  ZZC  19 c13
M  ZZC  20 h11
M  ZZC  21 h61
M  ZZC  22 h71
M  ZZC  23 h81
M  ZZC  24 h91
M  ZZC  25 h21
M  ZZC  26 h121
M  ZZC  27 h122
M  ZZC  28 h131
M  ZZC  29 h132
M  ZZM   1 37
M  ZZI   1 125
M  ZZM   2 37
M  ZZI   2 124
M  ZZM   3 3
M  ZZI   3 121
M  ZZM   4 7
M  ZZI   4 81
M  ZZM   5 10
M  ZZI   5 192
M  ZZM   6 3
M  ZZI   6 121
M  ZZM   7 7
M  ZZI   7 81
M  ZZM   8 37
M  ZZI   8 124
M  ZZM   9 37
M  ZZI   9 125
M  ZZM  10 37
M  ZZI  10 125
M  ZZM  11 37
M  ZZI  11 125
M  ZZM  12 1
M  ZZI  12 113
M  ZZM  13 3
M  ZZI  13 121
M  ZZM  14 7
M  ZZI  14 81
M  ZZM  15 10
M  ZZI  15 191
M  ZZM  16 3
M  ZZI  16 121
M  ZZM  17 7
M  ZZI  17 81
M  ZZM  18 1
M  ZZI  18 112
M  ZZM  19 1
M  ZZI  19 112
M  ZZM  20 5
M  ZZI  20 1
M  ZZM  21 5
M  ZZI  21 1
M  ZZM  22 5
M  ZZI  22 1
M  ZZM  23 5
M  ZZI  23 1
M  ZZM  24 5
M  ZZI  24 1
M  ZZM  25 28
M  ZZI  25 11
M  ZZM  26 5
M  ZZI  26 1
M  ZZM  27 5
M  ZZI  27 1
M  ZZM  28 5
M  ZZI  28 1
M  ZZM  29 5
M  ZZI  29 1
M  END
> <IX>
1

> <NAME>
Cereblon_3LQ5_18.pdb

> <Score>
-14.492048

> <Natom>
29

> <Nflex>
1

> <Hbond>
-0.486046

> <Hphob>
-3.316382

> <VwInt>
-22.867114

> <Dsolv>
11.331289

> <SolEl>
3.399466

> <Eintl>
0.807708

> <RecConf>
ND

> <projPath>
Cereblon_maps/

> <NAME_>
Cereblon_3LQ5_18.pdb

$$$$
