Cereblon_1EJ1_14.pdb
  MOLSOFT 04032206183D

 30 32  0  0  1  0  0  0  0  0999 V2000
   76.0539   42.8349   38.6267 C   0  0  0  0  0  0  0  0  0  0  0  0
   74.9762   42.0550   38.2404 C   0  0  0  0  0  0  0  0  0  0  0  0
   74.7303   40.8671   38.8679 C   0  0  0  0  0  0  0  0  0  0  0  0
   73.5592   40.2492   38.2417 C   0  0  0  0  0  0  0  0  0  0  0  0
   73.1158   39.1564   38.5628 O   0  0  0  0  0  0  0  0  0  0  0  0
   73.1152   41.1263   37.2679 N   0  0  0  0  0  0  0  0  0  0  0  0
   71.9666   40.8479   36.3861 C   0  0  1  0  0  0  0  0  0  0  0  0
   70.6408   41.0202   37.1263 C   0  0  0  0  0  0  0  0  0  0  0  0
   70.2052   40.2203   37.9404 O   0  0  0  0  0  0  0  0  0  0  0  0
   69.9286   42.1594   36.8663 N   0  0  0  0  0  0  0  0  0  0  0  0
   70.2142   43.1839   36.0161 C   0  0  0  0  0  0  0  0  0  0  0  0
   69.4896   44.1619   35.9754 O   0  0  0  0  0  0  0  0  0  0  0  0
   71.4718   43.0578   35.2011 C   0  0  0  0  0  0  0  0  0  0  0  0
   71.9242   41.6101   35.0587 C   0  0  0  0  0  0  0  0  0  0  0  0
   73.9693   42.2994   37.1765 C   0  0  0  0  0  0  0  0  0  0  0  0
   75.5079   40.3843   39.9036 C   0  0  0  0  0  0  0  0  0  0  0  0
   76.5719   41.1739   40.3126 C   0  0  0  0  0  0  0  0  0  0  0  0
   76.8401   42.3845   39.6788 C   0  0  0  0  0  0  0  0  0  0  0  0
   76.2872   43.7704   38.1279 H   0  0  0  0  0  0  0  0  0  0  0  0
   72.0283   39.7802   36.1473 H   0  0  0  0  0  0  0  0  0  0  0  0
   69.0568   42.2558   37.3705 H   0  0  0  0  0  0  0  0  0  0  0  0
   71.2662   43.4655   34.2084 H   0  0  0  0  0  0  0  0  0  0  0  0
   72.2375   43.6894   35.6553 H   0  0  0  0  0  0  0  0  0  0  0  0
   71.2126   41.1033   34.3962 H   0  0  0  0  0  0  0  0  0  0  0  0
   72.8923   41.5679   34.5514 H   0  0  0  0  0  0  0  0  0  0  0  0
   73.3891   43.2004   37.3824 H   0  0  0  0  0  0  0  0  0  0  0  0
   74.4422   42.3413   36.1903 H   0  0  0  0  0  0  0  0  0  0  0  0
   75.2967   39.4301   40.3756 H   0  0  0  0  0  0  0  0  0  0  0  0
   77.2097   40.8409   41.1258 H   0  0  0  0  0  0  0  0  0  0  0  0
   77.6854   42.9815   40.0076 H   0  0  0  0  0  0  0  0  0  0  0  0
  1 19  1  0  0  0  0
  1 18  2  0  0  0  0
  1  2  1  0  0  0  0
  2  3  2  0  0  0  0
  2 15  1  0  0  0  0
  3 16  1  0  0  0  0
  3  4  1  0  0  0  0
  4  6  1  0  0  0  0
  4  5  2  0  0  0  0
  6 15  1  0  0  0  0
  7  6  1  0  0  0  0
  7 20  1  0  0  0  0
  7  8  1  0  0  0  0
  7 14  1  0  0  0  0
  8  9  2  0  0  0  0
  8 10  1  0  0  0  0
 10 21  1  0  0  0  0
 10 11  1  0  0  0  0
 11 12  2  0  0  0  0
 11 13  1  0  0  0  0
 13 22  1  0  0  0  0
 13 23  1  0  0  0  0
 13 14  1  0  0  0  0
 14 24  1  0  0  0  0
 14 25  1  0  0  0  0
 15 26  1  0  0  0  0
 15 27  1  0  0  0  0
 16 17  2  0  0  0  0
 16 28  1  0  0  0  0
 17 18  1  0  0  0  0
 17 29  1  0  0  0  0
 18 30  1  0  0  0  0
M  ZZC   1 c1
M  ZZC   2 c2
M  ZZC   3 c3
M  ZZC   4 c4
M  ZZC   5 o1
M  ZZC   6 n1
M  ZZC   7 c5
M  ZZC   8 c6
M  ZZC   9 o2
M  ZZC  10 n2
M  ZZC  11 c7
M  ZZC  12 o3
M  ZZC  13 c8
M  ZZC  14 c9
M  ZZC  15 c10
M  ZZC  16 c11
M  ZZC  17 c12
M  ZZC  18 c13
M  ZZC  19 h11
M  ZZC  20 h51
M  ZZC  21 h21
M  ZZC  22 h81
M  ZZC  23 h82
M  ZZC  24 h91
M  ZZC  25 h92
M  ZZC  26 h101
M  ZZC  27 h102
M  ZZC  28 h111
M  ZZC  29 h121
M  ZZC  30 h131
M  ZZM   1 37
M  ZZI   1 125
M  ZZM   2 37
M  ZZI   2 124
M  ZZM   3 37
M  ZZI   3 124
M  ZZM   4 3
M  ZZI   4 121
M  ZZM   5 7
M  ZZI   5 81
M  ZZM   6 10
M  ZZI   6 192
M  ZZM   7 1
M  ZZI   7 113
M  ZZM   8 3
M  ZZI   8 121
M  ZZM   9 7
M  ZZI   9 81
M  ZZM  10 10
M  ZZI  10 191
M  ZZM  11 3
M  ZZI  11 121
M  ZZM  12 7
M  ZZI  12 81
M  ZZM  13 1
M  ZZI  13 112
M  ZZM  14 1
M  ZZI  14 112
M  ZZM  15 1
M  ZZI  15 112
M  ZZM  16 37
M  ZZI  16 125
M  ZZM  17 37
M  ZZI  17 125
M  ZZM  18 37
M  ZZI  18 125
M  ZZM  19 5
M  ZZI  19 1
M  ZZM  20 5
M  ZZI  20 1
M  ZZM  21 28
M  ZZI  21 11
M  ZZM  22 5
M  ZZI  22 1
M  ZZM  23 5
M  ZZI  23 1
M  ZZM  24 5
M  ZZI  24 1
M  ZZM  25 5
M  ZZI  25 1
M  ZZM  26 5
M  ZZI  26 1
M  ZZM  27 5
M  ZZI  27 1
M  ZZM  28 5
M  ZZI  28 1
M  ZZM  29 5
M  ZZI  29 1
M  ZZM  30 5
M  ZZI  30 1
M  END
> <IX>
1

> <NAME>
Cereblon_1EJ1_14.pdb

> <Score>
-14.396686

> <Natom>
30

> <Nflex>
1

> <Hbond>
-4.299621

> <Hphob>
-3.99461

> <VwInt>
-21.800561

> <Dsolv>
12.562952

> <SolEl>
11.627206

> <Eintl>
5.43689

> <RecConf>
ND

> <projPath>
Cereblon_maps/

> <NAME_>
Cereblon_1EJ1_14.pdb

$$$$
