Cereblon_4QNQ_35.pdb
  MOLSOFT 04032206233D

 31 33  0  0  1  0  0  0  0  0999 V2000
   76.7289   41.9956   40.4748 N   0  0  0  0  0  0  0  0  0  0  0  0
   76.3207   40.6857   40.1796 C   0  0  0  0  0  0  0  0  0  0  0  0
   75.2220   40.4178   39.3820 C   0  0  0  0  0  0  0  0  0  0  0  0
   74.3426   41.3487   38.6857 C   0  0  0  0  0  0  0  0  0  0  0  0
   74.4010   42.5584   38.8482 O   0  0  0  0  0  0  0  0  0  0  0  0
   73.4797   40.5822   37.9249 N   0  0  0  0  0  0  0  0  0  0  0  0
   73.6919   39.2384   38.1626 C   0  0  0  0  0  0  0  0  0  0  0  0
   73.1019   38.2667   37.7130 O   0  0  0  0  0  0  0  0  0  0  0  0
   74.8113   39.1529   39.0987 C   0  0  0  0  0  0  0  0  0  0  0  0
   75.4277   38.0438   39.6466 C   0  0  0  0  0  0  0  0  0  0  0  0
   76.4948   38.2827   40.5043 C   0  0  0  0  0  0  0  0  0  0  0  0
   76.9260   39.5824   40.7730 C   0  0  0  0  0  0  0  0  0  0  0  0
   72.3958   41.0771   37.0641 C   0  0  1  0  0  0  0  0  0  0  0  0
   71.1507   41.3401   37.9051 C   0  0  0  0  0  0  0  0  0  0  0  0
   70.8889   40.7223   38.9267 O   0  0  0  0  0  0  0  0  0  0  0  0
   70.2670   42.2643   37.3984 N   0  0  0  0  0  0  0  0  0  0  0  0
   70.3852   43.0465   36.2810 C   0  0  0  0  0  0  0  0  0  0  0  0
   69.5651   43.9151   36.0284 O   0  0  0  0  0  0  0  0  0  0  0  0
   71.5693   42.7433   35.3991 C   0  0  0  0  0  0  0  0  0  0  0  0
   72.7608   42.3109   36.2380 C   0  0  0  0  0  0  0  0  0  0  0  0
   77.6659   42.1279   40.8501 H   0  0  0  0  0  0  0  0  0  0  0  0
   76.3418   42.7532   39.9118 H   0  0  0  0  0  0  0  0  0  0  0  0
   75.0935   37.0352   39.4216 H   0  0  0  0  0  0  0  0  0  0  0  0
   77.0039   37.4444   40.9701 H   0  0  0  0  0  0  0  0  0  0  0  0
   77.7601   39.7323   41.4514 H   0  0  0  0  0  0  0  0  0  0  0  0
   72.1261   40.2634   36.3807 H   0  0  0  0  0  0  0  0  0  0  0  0
   69.4399   42.4359   37.9512 H   0  0  0  0  0  0  0  0  0  0  0  0
   71.2816   41.9639   34.6853 H   0  0  0  0  0  0  0  0  0  0  0  0
   71.8176   43.6450   34.8344 H   0  0  0  0  0  0  0  0  0  0  0  0
   73.0542   43.1463   36.8809 H   0  0  0  0  0  0  0  0  0  0  0  0
   73.6177   42.0938   35.5923 H   0  0  0  0  0  0  0  0  0  0  0  0
  1  2  1  0  0  0  0
  1 21  1  0  0  0  0
  1 22  1  0  0  0  0
  2  3  1  0  0  0  0
  2 12  2  0  0  0  0
  3  9  2  0  0  0  0
  3  4  1  0  0  0  0
  4  5  2  0  0  0  0
  4  6  1  0  0  0  0
  6  7  1  0  0  0  0
 13  6  1  0  0  0  0
  7  8  2  0  0  0  0
  7  9  1  0  0  0  0
  9 10  1  0  0  0  0
 10 23  1  0  0  0  0
 10 11  2  0  0  0  0
 11 12  1  0  0  0  0
 11 24  1  0  0  0  0
 12 25  1  0  0  0  0
 13 26  1  0  0  0  0
 13 14  1  0  0  0  0
 13 20  1  0  0  0  0
 14 15  2  0  0  0  0
 14 16  1  0  0  0  0
 16 27  1  0  0  0  0
 16 17  1  0  0  0  0
 17 18  2  0  0  0  0
 17 19  1  0  0  0  0
 19 28  1  0  0  0  0
 19 29  1  0  0  0  0
 19 20  1  0  0  0  0
 20 30  1  0  0  0  0
 20 31  1  0  0  0  0
M  ZZC   1 n1
M  ZZC   2 c1
M  ZZC   3 c2
M  ZZC   4 c3
M  ZZC   5 o1
M  ZZC   6 n2
M  ZZC   7 c4
M  ZZC   8 o2
M  ZZC   9 c5
M  ZZC  10 c6
M  ZZC  11 c7
M  ZZC  12 c8
M  ZZC  13 c9
M  ZZC  14 c10
M  ZZC  15 o3
M  ZZC  16 n3
M  ZZC  17 c11
M  ZZC  18 o4
M  ZZC  19 c12
M  ZZC  20 c13
M  ZZC  21 h11
M  ZZC  22 h12
M  ZZC  23 h61
M  ZZC  24 h71
M  ZZC  25 h81
M  ZZC  26 h91
M  ZZC  27 h31
M  ZZC  28 h121
M  ZZC  29 h122
M  ZZC  30 h131
M  ZZC  31 h132
M  ZZM   1 40
M  ZZI   1 224
M  ZZM   2 37
M  ZZI   2 124
M  ZZM   3 37
M  ZZI   3 124
M  ZZM   4 3
M  ZZI   4 121
M  ZZM   5 7
M  ZZI   5 81
M  ZZM   6 10
M  ZZI   6 192
M  ZZM   7 3
M  ZZI   7 121
M  ZZM   8 7
M  ZZI   8 81
M  ZZM   9 37
M  ZZI   9 124
M  ZZM  10 37
M  ZZI  10 125
M  ZZM  11 37
M  ZZI  11 125
M  ZZM  12 37
M  ZZI  12 125
M  ZZM  13 1
M  ZZI  13 113
M  ZZM  14 3
M  ZZI  14 121
M  ZZM  15 7
M  ZZI  15 81
M  ZZM  16 10
M  ZZI  16 191
M  ZZM  17 3
M  ZZI  17 121
M  ZZM  18 7
M  ZZI  18 81
M  ZZM  19 1
M  ZZI  19 112
M  ZZM  20 1
M  ZZI  20 112
M  ZZM  21 28
M  ZZI  21 11
M  ZZM  22 28
M  ZZI  22 11
M  ZZM  23 5
M  ZZI  23 1
M  ZZM  24 5
M  ZZI  24 1
M  ZZM  25 5
M  ZZI  25 1
M  ZZM  26 5
M  ZZI  26 1
M  ZZM  27 28
M  ZZI  27 11
M  ZZM  28 5
M  ZZI  28 1
M  ZZM  29 5
M  ZZI  29 1
M  ZZM  30 5
M  ZZI  30 1
M  ZZM  31 5
M  ZZI  31 1
M  END
> <IX>
1

> <NAME>
Cereblon_4QNQ_35.pdb

> <Score>
-19.560371

> <Natom>
31

> <Nflex>
1

> <Hbond>
-4.793672

> <Hphob>
-3.513022

> <VwInt>
-25.40522

> <Dsolv>
15.953944

> <SolEl>
10.504419

> <Eintl>
1.380315

> <RecConf>
ND

> <projPath>
Cereblon_maps/

> <NAME_>
Cereblon_4QNQ_35.pdb

$$$$
