Cereblon_3MXF_29.pdb
  MOLSOFT 04032206223D

 30 32  0  0  1  0  0  0  0  0999 V2000
   77.5509   40.9925   42.0908 C   0  0  0  0  0  0  0  0  0  0  0  0
   76.9338   41.0770   40.8535 C   0  0  0  0  0  0  0  0  0  0  0  0
   77.2386   42.0996   39.9956 C   0  0  0  0  0  0  0  0  0  0  0  0
   76.4015   41.9563   38.7991 C   0  0  0  0  0  0  0  0  0  0  0  0
   76.4477   42.6895   37.8214 O   0  0  0  0  0  0  0  0  0  0  0  0
   75.5583   40.8850   39.0318 N   0  0  0  0  0  0  0  0  0  0  0  0
   74.2527   40.7482   38.3680 C   0  0  2  0  0  0  0  0  0  0  0  0
   73.2353   41.5220   39.1908 C   0  0  0  0  0  0  0  0  0  0  0  0
   73.5622   42.3666   40.0086 O   0  0  0  0  0  0  0  0  0  0  0  0
   71.9149   41.2509   38.9256 N   0  0  0  0  0  0  0  0  0  0  0  0
   71.3989   40.2535   38.1341 C   0  0  0  0  0  0  0  0  0  0  0  0
   70.1952   40.1424   37.9544 O   0  0  0  0  0  0  0  0  0  0  0  0
   72.4125   39.3432   37.4724 C   0  0  0  0  0  0  0  0  0  0  0  0
   73.7386   39.3201   38.2230 C   0  0  0  0  0  0  0  0  0  0  0  0
   75.8982   40.1935   40.2607 C   0  0  0  0  0  0  0  0  0  0  0  0
   78.1579   43.0891   40.3003 C   0  0  0  0  0  0  0  0  0  0  0  0
   78.7873   43.0025   41.5356 C   0  0  0  0  0  0  0  0  0  0  0  0
   78.4783   41.9719   42.4227 C   0  0  0  0  0  0  0  0  0  0  0  0
   77.3128   40.1959   42.7890 H   0  0  0  0  0  0  0  0  0  0  0  0
   74.3098   41.2484   37.3936 H   0  0  0  0  0  0  0  0  0  0  0  0
   71.2448   41.8551   39.3846 H   0  0  0  0  0  0  0  0  0  0  0  0
   71.9947   38.3324   37.4307 H   0  0  0  0  0  0  0  0  0  0  0  0
   72.5583   39.6911   36.4439 H   0  0  0  0  0  0  0  0  0  0  0  0
   73.5942   38.8609   39.2081 H   0  0  0  0  0  0  0  0  0  0  0  0
   74.4582   38.6940   37.6884 H   0  0  0  0  0  0  0  0  0  0  0  0
   76.2882   39.1985   40.0208 H   0  0  0  0  0  0  0  0  0  0  0  0
   75.0183   40.1256   40.8966 H   0  0  0  0  0  0  0  0  0  0  0  0
   78.3736   43.8991   39.6112 H   0  0  0  0  0  0  0  0  0  0  0  0
   79.5126   43.7579   41.8211 H   0  0  0  0  0  0  0  0  0  0  0  0
   78.9696   41.9339   43.3904 H   0  0  0  0  0  0  0  0  0  0  0  0
  1 19  1  0  0  0  0
  1 18  1  0  0  0  0
  1  2  2  0  0  0  0
  2  3  1  0  0  0  0
  2 15  1  0  0  0  0
  3 16  2  0  0  0  0
  3  4  1  0  0  0  0
  4  6  1  0  0  0  0
  4  5  2  0  0  0  0
  6 15  1  0  0  0  0
  7  6  1  0  0  0  0
  7 20  1  0  0  0  0
  7  8  1  0  0  0  0
  7 14  1  0  0  0  0
  8  9  2  0  0  0  0
  8 10  1  0  0  0  0
 10 21  1  0  0  0  0
 10 11  1  0  0  0  0
 11 12  2  0  0  0  0
 11 13  1  0  0  0  0
 13 22  1  0  0  0  0
 13 23  1  0  0  0  0
 13 14  1  0  0  0  0
 14 24  1  0  0  0  0
 14 25  1  0  0  0  0
 15 26  1  0  0  0  0
 15 27  1  0  0  0  0
 16 17  1  0  0  0  0
 16 28  1  0  0  0  0
 17 18  2  0  0  0  0
 17 29  1  0  0  0  0
 18 30  1  0  0  0  0
M  ZZC   1 c1
M  ZZC   2 c2
M  ZZC   3 c3
M  ZZC   4 c4
M  ZZC   5 o1
M  ZZC   6 n1
M  ZZC   7 c5
M  ZZC   8 c6
M  ZZC   9 o2
M  ZZC  10 n2
M  ZZC  11 c7
M  ZZC  12 o3
M  ZZC  13 c8
M  ZZC  14 c9
M  ZZC  15 c10
M  ZZC  16 c11
M  ZZC  17 c12
M  ZZC  18 c13
M  ZZC  19 h11
M  ZZC  20 h51
M  ZZC  21 h21
M  ZZC  22 h81
M  ZZC  23 h82
M  ZZC  24 h91
M  ZZC  25 h92
M  ZZC  26 h101
M  ZZC  27 h102
M  ZZC  28 h111
M  ZZC  29 h121
M  ZZC  30 h131
M  ZZM   1 37
M  ZZI   1 125
M  ZZM   2 37
M  ZZI   2 124
M  ZZM   3 37
M  ZZI   3 124
M  ZZM   4 3
M  ZZI   4 121
M  ZZM   5 7
M  ZZI   5 81
M  ZZM   6 10
M  ZZI   6 192
M  ZZM   7 1
M  ZZI   7 113
M  ZZM   8 3
M  ZZI   8 121
M  ZZM   9 7
M  ZZI   9 81
M  ZZM  10 10
M  ZZI  10 191
M  ZZM  11 3
M  ZZI  11 121
M  ZZM  12 7
M  ZZI  12 81
M  ZZM  13 1
M  ZZI  13 112
M  ZZM  14 1
M  ZZI  14 112
M  ZZM  15 1
M  ZZI  15 112
M  ZZM  16 37
M  ZZI  16 125
M  ZZM  17 37
M  ZZI  17 125
M  ZZM  18 37
M  ZZI  18 125
M  ZZM  19 5
M  ZZI  19 1
M  ZZM  20 5
M  ZZI  20 1
M  ZZM  21 28
M  ZZI  21 11
M  ZZM  22 5
M  ZZI  22 1
M  ZZM  23 5
M  ZZI  23 1
M  ZZM  24 5
M  ZZI  24 1
M  ZZM  25 5
M  ZZI  25 1
M  ZZM  26 5
M  ZZI  26 1
M  ZZM  27 5
M  ZZI  27 1
M  ZZM  28 5
M  ZZI  28 1
M  ZZM  29 5
M  ZZI  29 1
M  ZZM  30 5
M  ZZI  30 1
M  END
> <IX>
1

> <NAME>
Cereblon_3MXF_29.pdb

> <Score>
-15.767514

> <Natom>
30

> <Nflex>
1

> <Hbond>
-4.250344

> <Hphob>
-3.615609

> <VwInt>
-19.366939

> <Dsolv>
14.001892

> <SolEl>
4.752874

> <Eintl>
4.228229

> <RecConf>
ND

> <projPath>
Cereblon_maps/

> <NAME_>
Cereblon_3MXF_29.pdb

$$$$
