Cereblon_6GFZ_1.pdb
  MOLSOFT 04032206283D

 31 33  0  0  1  0  0  0  0  0999 V2000
   77.7180   41.7596   42.1995 N   0  0  0  0  0  0  0  0  0  0  0  0
   77.4486   40.5155   41.6064 C   0  0  0  0  0  0  0  0  0  0  0  0
   76.4723   40.3415   40.6361 C   0  0  0  0  0  0  0  0  0  0  0  0
   75.5979   41.3212   39.9962 C   0  0  0  0  0  0  0  0  0  0  0  0
   75.6445   42.5276   40.1780 O   0  0  0  0  0  0  0  0  0  0  0  0
   74.7571   40.6238   39.1594 N   0  0  0  0  0  0  0  0  0  0  0  0
   75.0720   39.2801   39.1628 C   0  0  0  0  0  0  0  0  0  0  0  0
   74.5808   38.3518   38.5380 O   0  0  0  0  0  0  0  0  0  0  0  0
   76.1604   39.1175   40.1255 C   0  0  0  0  0  0  0  0  0  0  0  0
   76.7959   37.9623   40.5384 C   0  0  0  0  0  0  0  0  0  0  0  0
   77.7558   38.1011   41.5314 C   0  0  0  0  0  0  0  0  0  0  0  0
   78.0571   39.3523   42.0686 C   0  0  0  0  0  0  0  0  0  0  0  0
   73.7233   41.3028   38.3683 C   0  0  1  0  0  0  0  0  0  0  0  0
   74.3300   41.9451   37.1267 C   0  0  0  0  0  0  0  0  0  0  0  0
   75.5088   42.2593   37.0436 O   0  0  0  0  0  0  0  0  0  0  0  0
   73.4415   42.2342   36.1183 N   0  0  0  0  0  0  0  0  0  0  0  0
   72.0893   41.9996   36.0663 C   0  0  0  0  0  0  0  0  0  0  0  0
   71.4002   42.4042   35.1431 O   0  0  0  0  0  0  0  0  0  0  0  0
   71.5006   41.2555   37.2401 C   0  0  0  0  0  0  0  0  0  0  0  0
   72.5516   40.4190   37.9496 C   0  0  0  0  0  0  0  0  0  0  0  0
   78.5335   41.8489   42.8017 H   0  0  0  0  0  0  0  0  0  0  0  0
   77.3810   42.6030   41.7305 H   0  0  0  0  0  0  0  0  0  0  0  0
   76.5423   36.9905   40.1251 H   0  0  0  0  0  0  0  0  0  0  0  0
   78.2683   37.2213   41.9082 H   0  0  0  0  0  0  0  0  0  0  0  0
   78.7868   39.4157   42.8690 H   0  0  0  0  0  0  0  0  0  0  0  0
   73.3513   42.1252   38.9858 H   0  0  0  0  0  0  0  0  0  0  0  0
   73.8302   42.7010   35.3128 H   0  0  0  0  0  0  0  0  0  0  0  0
   71.0495   41.9826   37.9218 H   0  0  0  0  0  0  0  0  0  0  0  0
   70.7036   40.6035   36.8706 H   0  0  0  0  0  0  0  0  0  0  0  0
   72.8867   39.6279   37.2694 H   0  0  0  0  0  0  0  0  0  0  0  0
   72.1066   39.9315   38.8235 H   0  0  0  0  0  0  0  0  0  0  0  0
  1  2  1  0  0  0  0
  1 21  1  0  0  0  0
  1 22  1  0  0  0  0
  2  3  1  0  0  0  0
  2 12  2  0  0  0  0
  3  9  2  0  0  0  0
  3  4  1  0  0  0  0
  4  5  2  0  0  0  0
  4  6  1  0  0  0  0
  6  7  1  0  0  0  0
 13  6  1  0  0  0  0
  7  8  2  0  0  0  0
  7  9  1  0  0  0  0
  9 10  1  0  0  0  0
 10 23  1  0  0  0  0
 10 11  2  0  0  0  0
 11 12  1  0  0  0  0
 11 24  1  0  0  0  0
 12 25  1  0  0  0  0
 13 26  1  0  0  0  0
 13 14  1  0  0  0  0
 13 20  1  0  0  0  0
 14 15  2  0  0  0  0
 14 16  1  0  0  0  0
 16 27  1  0  0  0  0
 16 17  1  0  0  0  0
 17 18  2  0  0  0  0
 17 19  1  0  0  0  0
 19 28  1  0  0  0  0
 19 29  1  0  0  0  0
 19 20  1  0  0  0  0
 20 30  1  0  0  0  0
 20 31  1  0  0  0  0
M  ZZC   1 n1
M  ZZC   2 c1
M  ZZC   3 c2
M  ZZC   4 c3
M  ZZC   5 o1
M  ZZC   6 n2
M  ZZC   7 c4
M  ZZC   8 o2
M  ZZC   9 c5
M  ZZC  10 c6
M  ZZC  11 c7
M  ZZC  12 c8
M  ZZC  13 c9
M  ZZC  14 c10
M  ZZC  15 o3
M  ZZC  16 n3
M  ZZC  17 c11
M  ZZC  18 o4
M  ZZC  19 c12
M  ZZC  20 c13
M  ZZC  21 h11
M  ZZC  22 h12
M  ZZC  23 h61
M  ZZC  24 h71
M  ZZC  25 h81
M  ZZC  26 h91
M  ZZC  27 h31
M  ZZC  28 h121
M  ZZC  29 h122
M  ZZC  30 h131
M  ZZC  31 h132
M  ZZM   1 40
M  ZZI   1 224
M  ZZM   2 37
M  ZZI   2 124
M  ZZM   3 37
M  ZZI   3 124
M  ZZM   4 3
M  ZZI   4 121
M  ZZM   5 7
M  ZZI   5 81
M  ZZM   6 10
M  ZZI   6 192
M  ZZM   7 3
M  ZZI   7 121
M  ZZM   8 7
M  ZZI   8 81
M  ZZM   9 37
M  ZZI   9 124
M  ZZM  10 37
M  ZZI  10 125
M  ZZM  11 37
M  ZZI  11 125
M  ZZM  12 37
M  ZZI  12 125
M  ZZM  13 1
M  ZZI  13 113
M  ZZM  14 3
M  ZZI  14 121
M  ZZM  15 7
M  ZZI  15 81
M  ZZM  16 10
M  ZZI  16 191
M  ZZM  17 3
M  ZZI  17 121
M  ZZM  18 7
M  ZZI  18 81
M  ZZM  19 1
M  ZZI  19 112
M  ZZM  20 1
M  ZZI  20 112
M  ZZM  21 28
M  ZZI  21 11
M  ZZM  22 28
M  ZZI  22 11
M  ZZM  23 5
M  ZZI  23 1
M  ZZM  24 5
M  ZZI  24 1
M  ZZM  25 5
M  ZZI  25 1
M  ZZM  26 5
M  ZZI  26 1
M  ZZM  27 28
M  ZZI  27 11
M  ZZM  28 5
M  ZZI  28 1
M  ZZM  29 5
M  ZZI  29 1
M  ZZM  30 5
M  ZZI  30 1
M  ZZM  31 5
M  ZZI  31 1
M  END
> <IX>
1

> <NAME>
Cereblon_6GFZ_1.pdb

> <Score>
-14.267347

> <Natom>
31

> <Nflex>
1

> <Hbond>
-3.879717

> <Hphob>
-3.563466

> <VwInt>
-22.952746

> <Dsolv>
17.343128

> <SolEl>
8.986681

> <Eintl>
2.250085

> <RecConf>
ND

> <projPath>
Cereblon_maps/

> <NAME_>
Cereblon_6GFZ_1.pdb

$$$$
