Cereblon_1EJ1_5.pdb
  MOLSOFT 04032206183D

 30 32  0  0  1  0  0  0  0  0999 V2000
   75.6674   37.9129   39.7448 C   0  0  0  0  0  0  0  0  0  0  0  0
   74.9783   39.0151   39.2669 C   0  0  0  0  0  0  0  0  0  0  0  0
   75.2967   40.2658   39.7147 C   0  0  0  0  0  0  0  0  0  0  0  0
   74.4154   41.2287   39.0528 C   0  0  0  0  0  0  0  0  0  0  0  0
   74.4213   42.4228   39.3101 O   0  0  0  0  0  0  0  0  0  0  0  0
   73.6400   40.5114   38.1542 N   0  0  0  0  0  0  0  0  0  0  0  0
   72.6056   41.0380   37.2480 C   0  0  1  0  0  0  0  0  0  0  0  0
   71.2828   41.2551   37.9819 C   0  0  0  0  0  0  0  0  0  0  0  0
   70.9236   40.5756   38.9326 O   0  0  0  0  0  0  0  0  0  0  0  0
   70.4440   42.2060   37.4469 N   0  0  0  0  0  0  0  0  0  0  0  0
   70.6531   43.0388   36.3801 C   0  0  0  0  0  0  0  0  0  0  0  0
   69.8482   43.9099   36.0873 O   0  0  0  0  0  0  0  0  0  0  0  0
   71.9144   42.7837   35.5956 C   0  0  0  0  0  0  0  0  0  0  0  0
   73.0329   42.3034   36.5057 C   0  0  0  0  0  0  0  0  0  0  0  0
   73.8706   39.0816   38.2769 C   0  0  0  0  0  0  0  0  0  0  0  0
   76.3028   40.5092   40.6318 C   0  0  0  0  0  0  0  0  0  0  0  0
   76.9979   39.4095   41.1120 C   0  0  0  0  0  0  0  0  0  0  0  0
   76.6818   38.1271   40.6711 C   0  0  0  0  0  0  0  0  0  0  0  0
   75.4322   36.9093   39.4045 H   0  0  0  0  0  0  0  0  0  0  0  0
   72.4166   40.2582   36.5009 H   0  0  0  0  0  0  0  0  0  0  0  0
   69.5723   42.3528   37.9348 H   0  0  0  0  0  0  0  0  0  0  0  0
   71.6959   42.0492   34.8131 H   0  0  0  0  0  0  0  0  0  0  0  0
   72.2089   43.7181   35.1135 H   0  0  0  0  0  0  0  0  0  0  0  0
   73.9358   42.1111   35.9173 H   0  0  0  0  0  0  0  0  0  0  0  0
   73.2844   43.1040   37.2067 H   0  0  0  0  0  0  0  0  0  0  0  0
   74.1588   38.6674   37.3050 H   0  0  0  0  0  0  0  0  0  0  0  0
   72.9650   38.5958   38.6559 H   0  0  0  0  0  0  0  0  0  0  0  0
   76.5497   41.5155   40.9547 H   0  0  0  0  0  0  0  0  0  0  0  0
   77.7960   39.5522   41.8342 H   0  0  0  0  0  0  0  0  0  0  0  0
   77.2393   37.2798   41.0575 H   0  0  0  0  0  0  0  0  0  0  0  0
  1 19  1  0  0  0  0
  1 18  2  0  0  0  0
  1  2  1  0  0  0  0
  2  3  2  0  0  0  0
  2 15  1  0  0  0  0
  3 16  1  0  0  0  0
  3  4  1  0  0  0  0
  4  6  1  0  0  0  0
  4  5  2  0  0  0  0
  6 15  1  0  0  0  0
  7  6  1  0  0  0  0
  7 20  1  0  0  0  0
  7  8  1  0  0  0  0
  7 14  1  0  0  0  0
  8  9  2  0  0  0  0
  8 10  1  0  0  0  0
 10 21  1  0  0  0  0
 10 11  1  0  0  0  0
 11 12  2  0  0  0  0
 11 13  1  0  0  0  0
 13 22  1  0  0  0  0
 13 23  1  0  0  0  0
 13 14  1  0  0  0  0
 14 24  1  0  0  0  0
 14 25  1  0  0  0  0
 15 26  1  0  0  0  0
 15 27  1  0  0  0  0
 16 17  2  0  0  0  0
 16 28  1  0  0  0  0
 17 18  1  0  0  0  0
 17 29  1  0  0  0  0
 18 30  1  0  0  0  0
M  ZZC   1 c1
M  ZZC   2 c2
M  ZZC   3 c3
M  ZZC   4 c4
M  ZZC   5 o1
M  ZZC   6 n1
M  ZZC   7 c5
M  ZZC   8 c6
M  ZZC   9 o2
M  ZZC  10 n2
M  ZZC  11 c7
M  ZZC  12 o3
M  ZZC  13 c8
M  ZZC  14 c9
M  ZZC  15 c10
M  ZZC  16 c11
M  ZZC  17 c12
M  ZZC  18 c13
M  ZZC  19 h11
M  ZZC  20 h51
M  ZZC  21 h21
M  ZZC  22 h81
M  ZZC  23 h82
M  ZZC  24 h91
M  ZZC  25 h92
M  ZZC  26 h101
M  ZZC  27 h102
M  ZZC  28 h111
M  ZZC  29 h121
M  ZZC  30 h131
M  ZZM   1 37
M  ZZI   1 125
M  ZZM   2 37
M  ZZI   2 124
M  ZZM   3 37
M  ZZI   3 124
M  ZZM   4 3
M  ZZI   4 121
M  ZZM   5 7
M  ZZI   5 81
M  ZZM   6 10
M  ZZI   6 192
M  ZZM   7 1
M  ZZI   7 113
M  ZZM   8 3
M  ZZI   8 121
M  ZZM   9 7
M  ZZI   9 81
M  ZZM  10 10
M  ZZI  10 191
M  ZZM  11 3
M  ZZI  11 121
M  ZZM  12 7
M  ZZI  12 81
M  ZZM  13 1
M  ZZI  13 112
M  ZZM  14 1
M  ZZI  14 112
M  ZZM  15 1
M  ZZI  15 112
M  ZZM  16 37
M  ZZI  16 125
M  ZZM  17 37
M  ZZI  17 125
M  ZZM  18 37
M  ZZI  18 125
M  ZZM  19 5
M  ZZI  19 1
M  ZZM  20 5
M  ZZI  20 1
M  ZZM  21 28
M  ZZI  21 11
M  ZZM  22 5
M  ZZI  22 1
M  ZZM  23 5
M  ZZI  23 1
M  ZZM  24 5
M  ZZI  24 1
M  ZZM  25 5
M  ZZI  25 1
M  ZZM  26 5
M  ZZI  26 1
M  ZZM  27 5
M  ZZI  27 1
M  ZZM  28 5
M  ZZI  28 1
M  ZZM  29 5
M  ZZI  29 1
M  ZZM  30 5
M  ZZI  30 1
M  END
> <IX>
1

> <NAME>
Cereblon_1EJ1_5.pdb

> <Score>
-20.847702

> <Natom>
30

> <Nflex>
1

> <Hbond>
-4.63596

> <Hphob>
-3.628129

> <VwInt>
-21.931905

> <Dsolv>
13.311028

> <SolEl>
5.466477

> <Eintl>
1.754804

> <RecConf>
ND

> <projPath>
Cereblon_maps/

> <NAME_>
Cereblon_1EJ1_5.pdb

$$$$
