Cereblon_1HWK_21.pdb
  MOLSOFT 04032206193D

 31 33  0  0  1  0  0  0  0  0999 V2000
   75.0061   38.4252   40.2959 N   0  0  0  0  0  0  0  0  0  0  0  0
   75.3416   39.7139   39.8514 C   0  0  0  0  0  0  0  0  0  0  0  0
   74.5859   40.3885   38.9054 C   0  0  0  0  0  0  0  0  0  0  0  0
   73.4315   39.9330   38.1330 C   0  0  0  0  0  0  0  0  0  0  0  0
   72.9670   38.8045   38.2119 O   0  0  0  0  0  0  0  0  0  0  0  0
   73.0447   40.9891   37.3283 N   0  0  0  0  0  0  0  0  0  0  0  0
   73.9214   42.0457   37.4826 C   0  0  0  0  0  0  0  0  0  0  0  0
   74.0013   43.1083   36.8899 O   0  0  0  0  0  0  0  0  0  0  0  0
   74.8757   41.6572   38.5147 C   0  0  0  0  0  0  0  0  0  0  0  0
   75.9313   42.3725   39.0475 C   0  0  0  0  0  0  0  0  0  0  0  0
   76.6710   41.7434   40.0377 C   0  0  0  0  0  0  0  0  0  0  0  0
   76.3723   40.4410   40.4403 C   0  0  0  0  0  0  0  0  0  0  0  0
   71.8985   40.8973   36.4063 C   0  0  1  0  0  0  0  0  0  0  0  0
   70.5801   41.0359   37.1647 C   0  0  0  0  0  0  0  0  0  0  0  0
   70.1847   40.2201   37.9828 O   0  0  0  0  0  0  0  0  0  0  0  0
   69.8134   42.1402   36.9098 N   0  0  0  0  0  0  0  0  0  0  0  0
   70.0640   43.2006   36.0966 C   0  0  0  0  0  0  0  0  0  0  0  0
   69.2598   44.1115   36.0188 O   0  0  0  0  0  0  0  0  0  0  0  0
   71.3880   43.2065   35.3939 C   0  0  0  0  0  0  0  0  0  0  0  0
   71.9229   41.7969   35.1640 C   0  0  0  0  0  0  0  0  0  0  0  0
   75.7057   37.8938   40.8089 H   0  0  0  0  0  0  0  0  0  0  0  0
   74.3249   37.9015   39.7433 H   0  0  0  0  0  0  0  0  0  0  0  0
   76.1722   43.3780   38.7177 H   0  0  0  0  0  0  0  0  0  0  0  0
   77.4973   42.2725   40.5038 H   0  0  0  0  0  0  0  0  0  0  0  0
   76.9688   39.9861   41.2248 H   0  0  0  0  0  0  0  0  0  0  0  0
   71.9042   39.8642   36.0406 H   0  0  0  0  0  0  0  0  0  0  0  0
   68.9164   42.1739   37.3775 H   0  0  0  0  0  0  0  0  0  0  0  0
   71.2503   43.7025   34.4297 H   0  0  0  0  0  0  0  0  0  0  0  0
   72.0640   43.8258   35.9839 H   0  0  0  0  0  0  0  0  0  0  0  0
   71.2883   41.3312   34.4010 H   0  0  0  0  0  0  0  0  0  0  0  0
   72.9271   41.8402   34.7332 H   0  0  0  0  0  0  0  0  0  0  0  0
  1  2  1  0  0  0  0
  1 21  1  0  0  0  0
  1 22  1  0  0  0  0
  2  3  1  0  0  0  0
  2 12  2  0  0  0  0
  3  9  2  0  0  0  0
  3  4  1  0  0  0  0
  4  5  2  0  0  0  0
  4  6  1  0  0  0  0
  6  7  1  0  0  0  0
 13  6  1  0  0  0  0
  7  8  2  0  0  0  0
  7  9  1  0  0  0  0
  9 10  1  0  0  0  0
 10 23  1  0  0  0  0
 10 11  2  0  0  0  0
 11 12  1  0  0  0  0
 11 24  1  0  0  0  0
 12 25  1  0  0  0  0
 13 26  1  0  0  0  0
 13 14  1  0  0  0  0
 13 20  1  0  0  0  0
 14 15  2  0  0  0  0
 14 16  1  0  0  0  0
 16 27  1  0  0  0  0
 16 17  1  0  0  0  0
 17 18  2  0  0  0  0
 17 19  1  0  0  0  0
 19 28  1  0  0  0  0
 19 29  1  0  0  0  0
 19 20  1  0  0  0  0
 20 30  1  0  0  0  0
 20 31  1  0  0  0  0
M  ZZC   1 n1
M  ZZC   2 c1
M  ZZC   3 c2
M  ZZC   4 c3
M  ZZC   5 o1
M  ZZC   6 n2
M  ZZC   7 c4
M  ZZC   8 o2
M  ZZC   9 c5
M  ZZC  10 c6
M  ZZC  11 c7
M  ZZC  12 c8
M  ZZC  13 c9
M  ZZC  14 c10
M  ZZC  15 o3
M  ZZC  16 n3
M  ZZC  17 c11
M  ZZC  18 o4
M  ZZC  19 c12
M  ZZC  20 c13
M  ZZC  21 h11
M  ZZC  22 h12
M  ZZC  23 h61
M  ZZC  24 h71
M  ZZC  25 h81
M  ZZC  26 h91
M  ZZC  27 h31
M  ZZC  28 h121
M  ZZC  29 h122
M  ZZC  30 h131
M  ZZC  31 h132
M  ZZM   1 40
M  ZZI   1 224
M  ZZM   2 37
M  ZZI   2 124
M  ZZM   3 37
M  ZZI   3 124
M  ZZM   4 3
M  ZZI   4 121
M  ZZM   5 7
M  ZZI   5 81
M  ZZM   6 10
M  ZZI   6 192
M  ZZM   7 3
M  ZZI   7 121
M  ZZM   8 7
M  ZZI   8 81
M  ZZM   9 37
M  ZZI   9 124
M  ZZM  10 37
M  ZZI  10 125
M  ZZM  11 37
M  ZZI  11 125
M  ZZM  12 37
M  ZZI  12 125
M  ZZM  13 1
M  ZZI  13 113
M  ZZM  14 3
M  ZZI  14 121
M  ZZM  15 7
M  ZZI  15 81
M  ZZM  16 10
M  ZZI  16 191
M  ZZM  17 3
M  ZZI  17 121
M  ZZM  18 7
M  ZZI  18 81
M  ZZM  19 1
M  ZZI  19 112
M  ZZM  20 1
M  ZZI  20 112
M  ZZM  21 28
M  ZZI  21 11
M  ZZM  22 28
M  ZZI  22 11
M  ZZM  23 5
M  ZZI  23 1
M  ZZM  24 5
M  ZZI  24 1
M  ZZM  25 5
M  ZZI  25 1
M  ZZM  26 5
M  ZZI  26 1
M  ZZM  27 28
M  ZZI  27 11
M  ZZM  28 5
M  ZZI  28 1
M  ZZM  29 5
M  ZZI  29 1
M  ZZM  30 5
M  ZZI  30 1
M  ZZM  31 5
M  ZZI  31 1
M  END
> <IX>
1

> <NAME>
Cereblon_1HWK_21.pdb

> <Score>
-14.66025

> <Natom>
31

> <Nflex>
1

> <Hbond>
-4.391775

> <Hphob>
-3.628873

> <VwInt>
-23.089908

> <Dsolv>
14.450649

> <SolEl>
9.358006

> <Eintl>
7.263208

> <RecConf>
ND

> <projPath>
Cereblon_maps/

> <NAME_>
Cereblon_1HWK_21.pdb

$$$$
