Cereblon_5P9J_6.pdb
  MOLSOFT 04032206263D

 29 31  0  0  1  0  0  0  0  0999 V2000
   78.9930   42.4767   42.6740 C   0  0  0  0  0  0  0  0  0  0  0  0
   78.1774   42.1856   41.5954 C   0  0  0  0  0  0  0  0  0  0  0  0
   77.2626   41.0662   41.4055 C   0  0  0  0  0  0  0  0  0  0  0  0
   77.0850   40.2024   42.2505 O   0  0  0  0  0  0  0  0  0  0  0  0
   76.7199   41.2135   40.1423 N   0  0  0  0  0  0  0  0  0  0  0  0
   77.2179   42.3418   39.5220 C   0  0  0  0  0  0  0  0  0  0  0  0
   76.9861   42.7625   38.3959 O   0  0  0  0  0  0  0  0  0  0  0  0
   78.1505   42.9522   40.4695 C   0  0  0  0  0  0  0  0  0  0  0  0
   78.9487   44.0699   40.3330 C   0  0  0  0  0  0  0  0  0  0  0  0
   79.7887   44.3762   41.3980 C   0  0  0  0  0  0  0  0  0  0  0  0
   79.8112   43.5924   42.5523 C   0  0  0  0  0  0  0  0  0  0  0  0
   75.7098   40.3629   39.5077 C   0  0  2  0  0  0  0  0  0  0  0  0
   74.3314   40.9363   39.7933 C   0  0  0  0  0  0  0  0  0  0  0  0
   74.1469   42.1224   40.0106 O   0  0  0  0  0  0  0  0  0  0  0  0
   73.2781   40.0581   39.7112 N   0  0  0  0  0  0  0  0  0  0  0  0
   73.3130   38.7130   39.4369 C   0  0  0  0  0  0  0  0  0  0  0  0
   72.2957   38.0426   39.3716 O   0  0  0  0  0  0  0  0  0  0  0  0
   74.6772   38.1272   39.1668 C   0  0  0  0  0  0  0  0  0  0  0  0
   75.7575   38.8929   39.9092 C   0  0  0  0  0  0  0  0  0  0  0  0
   79.0003   41.8605   43.5689 H   0  0  0  0  0  0  0  0  0  0  0  0
   78.9205   44.6750   39.4345 H   0  0  0  0  0  0  0  0  0  0  0  0
   80.4375   45.2420   41.3321 H   0  0  0  0  0  0  0  0  0  0  0  0
   80.4782   43.8590   43.3673 H   0  0  0  0  0  0  0  0  0  0  0  0
   75.8524   40.4511   38.4291 H   0  0  0  0  0  0  0  0  0  0  0  0
   72.3603   40.4540   39.8720 H   0  0  0  0  0  0  0  0  0  0  0  0
   74.6787   37.0822   39.4929 H   0  0  0  0  0  0  0  0  0  0  0  0
   74.8451   38.1492   38.0857 H   0  0  0  0  0  0  0  0  0  0  0  0
   75.5880   38.7740   40.9828 H   0  0  0  0  0  0  0  0  0  0  0  0
   76.7426   38.4666   39.6929 H   0  0  0  0  0  0  0  0  0  0  0  0
  1 20  1  0  0  0  0
  1  2  1  0  0  0  0
  1 11  2  0  0  0  0
  2  3  1  0  0  0  0
  2  8  2  0  0  0  0
  3  4  2  0  0  0  0
  3  5  1  0  0  0  0
  5  6  1  0  0  0  0
 12  5  1  0  0  0  0
  6  7  2  0  0  0  0
  6  8  1  0  0  0  0
  8  9  1  0  0  0  0
  9 21  1  0  0  0  0
  9 10  2  0  0  0  0
 10 22  1  0  0  0  0
 10 11  1  0  0  0  0
 11 23  1  0  0  0  0
 12 24  1  0  0  0  0
 12 13  1  0  0  0  0
 12 19  1  0  0  0  0
 13 14  2  0  0  0  0
 13 15  1  0  0  0  0
 15 25  1  0  0  0  0
 15 16  1  0  0  0  0
 16 17  2  0  0  0  0
 16 18  1  0  0  0  0
 18 26  1  0  0  0  0
 18 27  1  0  0  0  0
 18 19  1  0  0  0  0
 19 28  1  0  0  0  0
 19 29  1  0  0  0  0
M  ZZC   1 c1
M  ZZC   2 c2
M  ZZC   3 c3
M  ZZC   4 o1
M  ZZC   5 n1
M  ZZC   6 c4
M  ZZC   7 o2
M  ZZC   8 c5
M  ZZC   9 c6
M  ZZC  10 c7
M  ZZC  11 c8
M  ZZC  12 c9
M  ZZC  13 c10
M  ZZC  14 o3
M  ZZC  15 n2
M  ZZC  16 c11
M  ZZC  17 o4
M  ZZC  18 c12
M  ZZC  19 c13
M  ZZC  20 h11
M  ZZC  21 h61
M  ZZC  22 h71
M  ZZC  23 h81
M  ZZC  24 h91
M  ZZC  25 h21
M  ZZC  26 h121
M  ZZC  27 h122
M  ZZC  28 h131
M  ZZC  29 h132
M  ZZM   1 37
M  ZZI   1 125
M  ZZM   2 37
M  ZZI   2 124
M  ZZM   3 3
M  ZZI   3 121
M  ZZM   4 7
M  ZZI   4 81
M  ZZM   5 10
M  ZZI   5 192
M  ZZM   6 3
M  ZZI   6 121
M  ZZM   7 7
M  ZZI   7 81
M  ZZM   8 37
M  ZZI   8 124
M  ZZM   9 37
M  ZZI   9 125
M  ZZM  10 37
M  ZZI  10 125
M  ZZM  11 37
M  ZZI  11 125
M  ZZM  12 1
M  ZZI  12 113
M  ZZM  13 3
M  ZZI  13 121
M  ZZM  14 7
M  ZZI  14 81
M  ZZM  15 10
M  ZZI  15 191
M  ZZM  16 3
M  ZZI  16 121
M  ZZM  17 7
M  ZZI  17 81
M  ZZM  18 1
M  ZZI  18 112
M  ZZM  19 1
M  ZZI  19 112
M  ZZM  20 5
M  ZZI  20 1
M  ZZM  21 5
M  ZZI  21 1
M  ZZM  22 5
M  ZZI  22 1
M  ZZM  23 5
M  ZZI  23 1
M  ZZM  24 5
M  ZZI  24 1
M  ZZM  25 28
M  ZZI  25 11
M  ZZM  26 5
M  ZZI  26 1
M  ZZM  27 5
M  ZZI  27 1
M  ZZM  28 5
M  ZZI  28 1
M  ZZM  29 5
M  ZZI  29 1
M  END
> <IX>
1

> <NAME>
Cereblon_5P9J_6.pdb

> <Score>
-19.13918

> <Natom>
29

> <Nflex>
1

> <Hbond>
-3.367606

> <Hphob>
-3.51639

> <VwInt>
-22.698865

> <Dsolv>
12.136537

> <SolEl>
5.785587

> <Eintl>
1.524699

> <RecConf>
ND

> <projPath>
Cereblon_maps/

> <NAME_>
Cereblon_5P9J_6.pdb

$$$$
