Cereblon_4XUF_1.pdb
  MOLSOFT 04032206243D

 29 31  0  0  1  0  0  0  0  0999 V2000
   78.9984   42.4809   42.6744 C   0  0  0  0  0  0  0  0  0  0  0  0
   78.1811   42.1894   41.5970 C   0  0  0  0  0  0  0  0  0  0  0  0
   77.2640   41.0717   41.4084 C   0  0  0  0  0  0  0  0  0  0  0  0
   77.0851   40.2083   42.2537 O   0  0  0  0  0  0  0  0  0  0  0  0
   76.7225   41.2179   40.1447 N   0  0  0  0  0  0  0  0  0  0  0  0
   77.2208   42.3453   39.5234 C   0  0  0  0  0  0  0  0  0  0  0  0
   76.9876   42.7651   38.3973 O   0  0  0  0  0  0  0  0  0  0  0  0
   78.1549   42.9550   40.4703 C   0  0  0  0  0  0  0  0  0  0  0  0
   78.9538   44.0718   40.3322 C   0  0  0  0  0  0  0  0  0  0  0  0
   79.7951   44.3788   41.3960 C   0  0  0  0  0  0  0  0  0  0  0  0
   79.8181   43.5964   42.5514 C   0  0  0  0  0  0  0  0  0  0  0  0
   75.7136   40.3656   39.5099 C   0  0  2  0  0  0  0  0  0  0  0  0
   74.3342   40.9376   39.7951 C   0  0  0  0  0  0  0  0  0  0  0  0
   74.1494   42.1238   40.0115 O   0  0  0  0  0  0  0  0  0  0  0  0
   73.2817   40.0588   39.7136 N   0  0  0  0  0  0  0  0  0  0  0  0
   73.3172   38.7131   39.4407 C   0  0  0  0  0  0  0  0  0  0  0  0
   72.3004   38.0418   39.3772 O   0  0  0  0  0  0  0  0  0  0  0  0
   74.6816   38.1277   39.1705 C   0  0  0  0  0  0  0  0  0  0  0  0
   75.7632   38.8945   39.9109 C   0  0  0  0  0  0  0  0  0  0  0  0
   79.0055   41.8644   43.5691 H   0  0  0  0  0  0  0  0  0  0  0  0
   78.9245   44.6762   39.4334 H   0  0  0  0  0  0  0  0  0  0  0  0
   80.4441   45.2443   41.3283 H   0  0  0  0  0  0  0  0  0  0  0  0
   80.4853   43.8625   43.3664 H   0  0  0  0  0  0  0  0  0  0  0  0
   75.8559   40.4543   38.4309 H   0  0  0  0  0  0  0  0  0  0  0  0
   72.3635   40.4549   39.8723 H   0  0  0  0  0  0  0  0  0  0  0  0
   74.6826   37.0826   39.4962 H   0  0  0  0  0  0  0  0  0  0  0  0
   74.8473   38.1477   38.0890 H   0  0  0  0  0  0  0  0  0  0  0  0
   75.5962   38.7743   40.9849 H   0  0  0  0  0  0  0  0  0  0  0  0
   76.7483   38.4698   39.6918 H   0  0  0  0  0  0  0  0  0  0  0  0
  1 20  1  0  0  0  0
  1  2  1  0  0  0  0
  1 11  2  0  0  0  0
  2  3  1  0  0  0  0
  2  8  2  0  0  0  0
  3  4  2  0  0  0  0
  3  5  1  0  0  0  0
  5  6  1  0  0  0  0
 12  5  1  0  0  0  0
  6  7  2  0  0  0  0
  6  8  1  0  0  0  0
  8  9  1  0  0  0  0
  9 21  1  0  0  0  0
  9 10  2  0  0  0  0
 10 22  1  0  0  0  0
 10 11  1  0  0  0  0
 11 23  1  0  0  0  0
 12 24  1  0  0  0  0
 12 13  1  0  0  0  0
 12 19  1  0  0  0  0
 13 14  2  0  0  0  0
 13 15  1  0  0  0  0
 15 25  1  0  0  0  0
 15 16  1  0  0  0  0
 16 17  2  0  0  0  0
 16 18  1  0  0  0  0
 18 26  1  0  0  0  0
 18 27  1  0  0  0  0
 18 19  1  0  0  0  0
 19 28  1  0  0  0  0
 19 29  1  0  0  0  0
M  ZZC   1 c1
M  ZZC   2 c2
M  ZZC   3 c3
M  ZZC   4 o1
M  ZZC   5 n1
M  ZZC   6 c4
M  ZZC   7 o2
M  ZZC   8 c5
M  ZZC   9 c6
M  ZZC  10 c7
M  ZZC  11 c8
M  ZZC  12 c9
M  ZZC  13 c10
M  ZZC  14 o3
M  ZZC  15 n2
M  ZZC  16 c11
M  ZZC  17 o4
M  ZZC  18 c12
M  ZZC  19 c13
M  ZZC  20 h11
M  ZZC  21 h61
M  ZZC  22 h71
M  ZZC  23 h81
M  ZZC  24 h91
M  ZZC  25 h21
M  ZZC  26 h121
M  ZZC  27 h122
M  ZZC  28 h131
M  ZZC  29 h132
M  ZZM   1 37
M  ZZI   1 125
M  ZZM   2 37
M  ZZI   2 124
M  ZZM   3 3
M  ZZI   3 121
M  ZZM   4 7
M  ZZI   4 81
M  ZZM   5 10
M  ZZI   5 192
M  ZZM   6 3
M  ZZI   6 121
M  ZZM   7 7
M  ZZI   7 81
M  ZZM   8 37
M  ZZI   8 124
M  ZZM   9 37
M  ZZI   9 125
M  ZZM  10 37
M  ZZI  10 125
M  ZZM  11 37
M  ZZI  11 125
M  ZZM  12 1
M  ZZI  12 113
M  ZZM  13 3
M  ZZI  13 121
M  ZZM  14 7
M  ZZI  14 81
M  ZZM  15 10
M  ZZI  15 191
M  ZZM  16 3
M  ZZI  16 121
M  ZZM  17 7
M  ZZI  17 81
M  ZZM  18 1
M  ZZI  18 112
M  ZZM  19 1
M  ZZI  19 112
M  ZZM  20 5
M  ZZI  20 1
M  ZZM  21 5
M  ZZI  21 1
M  ZZM  22 5
M  ZZI  22 1
M  ZZM  23 5
M  ZZI  23 1
M  ZZM  24 5
M  ZZI  24 1
M  ZZM  25 28
M  ZZI  25 11
M  ZZM  26 5
M  ZZI  26 1
M  ZZM  27 5
M  ZZI  27 1
M  ZZM  28 5
M  ZZI  28 1
M  ZZM  29 5
M  ZZI  29 1
M  END
> <IX>
1

> <NAME>
Cereblon_4XUF_1.pdb

> <Score>
-19.25859

> <Natom>
29

> <Nflex>
1

> <Hbond>
-3.288276

> <Hphob>
-3.550393

> <VwInt>
-22.868359

> <Dsolv>
12.073483

> <SolEl>
5.681758

> <Eintl>
1.504664

> <RecConf>
ND

> <projPath>
Cereblon_maps/

> <NAME_>
Cereblon_4XUF_1.pdb

$$$$
