Cereblon_6Z45_12.pdb
  MOLSOFT 04032206303D

 29 31  0  0  1  0  0  0  0  0999 V2000
   79.0004   42.4890   42.6724 C   0  0  0  0  0  0  0  0  0  0  0  0
   78.1832   42.1941   41.5956 C   0  0  0  0  0  0  0  0  0  0  0  0
   77.2671   41.0753   41.4089 C   0  0  0  0  0  0  0  0  0  0  0  0
   77.0875   40.2139   42.2561 O   0  0  0  0  0  0  0  0  0  0  0  0
   76.7255   41.2183   40.1447 N   0  0  0  0  0  0  0  0  0  0  0  0
   77.2225   42.3453   39.5216 C   0  0  0  0  0  0  0  0  0  0  0  0
   76.9883   42.7637   38.3952 O   0  0  0  0  0  0  0  0  0  0  0  0
   78.1559   42.9575   40.4677 C   0  0  0  0  0  0  0  0  0  0  0  0
   78.9546   44.0740   40.3263 C   0  0  0  0  0  0  0  0  0  0  0  0
   79.7957   44.3837   41.3894 C   0  0  0  0  0  0  0  0  0  0  0  0
   79.8191   43.6047   42.5470 C   0  0  0  0  0  0  0  0  0  0  0  0
   75.7160   40.3650   39.5119 C   0  0  2  0  0  0  0  0  0  0  0  0
   74.3369   40.9352   39.8014 C   0  0  0  0  0  0  0  0  0  0  0  0
   74.1510   42.1214   40.0172 O   0  0  0  0  0  0  0  0  0  0  0  0
   73.2857   40.0547   39.7235 N   0  0  0  0  0  0  0  0  0  0  0  0
   73.3221   38.7096   39.4485 C   0  0  0  0  0  0  0  0  0  0  0  0
   72.3057   38.0377   39.3859 O   0  0  0  0  0  0  0  0  0  0  0  0
   74.6868   38.1266   39.1742 C   0  0  0  0  0  0  0  0  0  0  0  0
   75.7683   38.8947   39.9135 C   0  0  0  0  0  0  0  0  0  0  0  0
   79.0101   41.8743   43.5682 H   0  0  0  0  0  0  0  0  0  0  0  0
   78.9257   44.6748   39.4251 H   0  0  0  0  0  0  0  0  0  0  0  0
   80.4435   45.2501   41.3211 H   0  0  0  0  0  0  0  0  0  0  0  0
   80.4855   43.8731   43.3618 H   0  0  0  0  0  0  0  0  0  0  0  0
   75.8558   40.4526   38.4324 H   0  0  0  0  0  0  0  0  0  0  0  0
   72.3673   40.4483   39.8869 H   0  0  0  0  0  0  0  0  0  0  0  0
   74.6913   37.0813   39.4993 H   0  0  0  0  0  0  0  0  0  0  0  0
   74.8507   38.1499   38.0925 H   0  0  0  0  0  0  0  0  0  0  0  0
   75.6035   38.7759   40.9880 H   0  0  0  0  0  0  0  0  0  0  0  0
   76.7537   38.4723   39.6912 H   0  0  0  0  0  0  0  0  0  0  0  0
  1 20  1  0  0  0  0
  1  2  1  0  0  0  0
  1 11  2  0  0  0  0
  2  3  1  0  0  0  0
  2  8  2  0  0  0  0
  3  4  2  0  0  0  0
  3  5  1  0  0  0  0
  5  6  1  0  0  0  0
 12  5  1  0  0  0  0
  6  7  2  0  0  0  0
  6  8  1  0  0  0  0
  8  9  1  0  0  0  0
  9 21  1  0  0  0  0
  9 10  2  0  0  0  0
 10 22  1  0  0  0  0
 10 11  1  0  0  0  0
 11 23  1  0  0  0  0
 12 24  1  0  0  0  0
 12 13  1  0  0  0  0
 12 19  1  0  0  0  0
 13 14  2  0  0  0  0
 13 15  1  0  0  0  0
 15 25  1  0  0  0  0
 15 16  1  0  0  0  0
 16 17  2  0  0  0  0
 16 18  1  0  0  0  0
 18 26  1  0  0  0  0
 18 27  1  0  0  0  0
 18 19  1  0  0  0  0
 19 28  1  0  0  0  0
 19 29  1  0  0  0  0
M  ZZC   1 c1
M  ZZC   2 c2
M  ZZC   3 c3
M  ZZC   4 o1
M  ZZC   5 n1
M  ZZC   6 c4
M  ZZC   7 o2
M  ZZC   8 c5
M  ZZC   9 c6
M  ZZC  10 c7
M  ZZC  11 c8
M  ZZC  12 c9
M  ZZC  13 c10
M  ZZC  14 o3
M  ZZC  15 n2
M  ZZC  16 c11
M  ZZC  17 o4
M  ZZC  18 c12
M  ZZC  19 c13
M  ZZC  20 h11
M  ZZC  21 h61
M  ZZC  22 h71
M  ZZC  23 h81
M  ZZC  24 h91
M  ZZC  25 h21
M  ZZC  26 h121
M  ZZC  27 h122
M  ZZC  28 h131
M  ZZC  29 h132
M  ZZM   1 37
M  ZZI   1 125
M  ZZM   2 37
M  ZZI   2 124
M  ZZM   3 3
M  ZZI   3 121
M  ZZM   4 7
M  ZZI   4 81
M  ZZM   5 10
M  ZZI   5 192
M  ZZM   6 3
M  ZZI   6 121
M  ZZM   7 7
M  ZZI   7 81
M  ZZM   8 37
M  ZZI   8 124
M  ZZM   9 37
M  ZZI   9 125
M  ZZM  10 37
M  ZZI  10 125
M  ZZM  11 37
M  ZZI  11 125
M  ZZM  12 1
M  ZZI  12 113
M  ZZM  13 3
M  ZZI  13 121
M  ZZM  14 7
M  ZZI  14 81
M  ZZM  15 10
M  ZZI  15 191
M  ZZM  16 3
M  ZZI  16 121
M  ZZM  17 7
M  ZZI  17 81
M  ZZM  18 1
M  ZZI  18 112
M  ZZM  19 1
M  ZZI  19 112
M  ZZM  20 5
M  ZZI  20 1
M  ZZM  21 5
M  ZZI  21 1
M  ZZM  22 5
M  ZZI  22 1
M  ZZM  23 5
M  ZZI  23 1
M  ZZM  24 5
M  ZZI  24 1
M  ZZM  25 28
M  ZZI  25 11
M  ZZM  26 5
M  ZZI  26 1
M  ZZM  27 5
M  ZZI  27 1
M  ZZM  28 5
M  ZZI  28 1
M  ZZM  29 5
M  ZZI  29 1
M  END
> <IX>
1

> <NAME>
Cereblon_6Z45_12.pdb

> <Score>
-19.368374

> <Natom>
29

> <Nflex>
1

> <Hbond>
-3.368366

> <Hphob>
-3.576279

> <VwInt>
-22.6898

> <Dsolv>
12.053106

> <SolEl>
5.622287

> <Eintl>
1.4816

> <RecConf>
ND

> <projPath>
Cereblon_maps/

> <NAME_>
Cereblon_6Z45_12.pdb

$$$$
