Cereblon_4OTR_1.pdb
  MOLSOFT 04032206233D

 31 33  0  0  1  0  0  0  0  0999 V2000
   78.8161   41.6816   43.8151 N   0  0  0  0  0  0  0  0  0  0  0  0
   78.9046   42.4288   42.6304 C   0  0  0  0  0  0  0  0  0  0  0  0
   78.1000   42.1609   41.5359 C   0  0  0  0  0  0  0  0  0  0  0  0
   77.1790   41.0502   41.3304 C   0  0  0  0  0  0  0  0  0  0  0  0
   76.9963   40.1697   42.1580 O   0  0  0  0  0  0  0  0  0  0  0  0
   76.6457   41.2121   40.0671 N   0  0  0  0  0  0  0  0  0  0  0  0
   77.1663   42.3325   39.4522 C   0  0  0  0  0  0  0  0  0  0  0  0
   76.9532   42.7540   38.3228 O   0  0  0  0  0  0  0  0  0  0  0  0
   78.0973   42.9291   40.4113 C   0  0  0  0  0  0  0  0  0  0  0  0
   78.9086   44.0384   40.2895 C   0  0  0  0  0  0  0  0  0  0  0  0
   79.7254   44.3391   41.3734 C   0  0  0  0  0  0  0  0  0  0  0  0
   79.7126   43.5575   42.5304 C   0  0  0  0  0  0  0  0  0  0  0  0
   75.6258   40.3752   39.4314 C   0  0  2  0  0  0  0  0  0  0  0  0
   74.2544   40.9535   39.7366 C   0  0  0  0  0  0  0  0  0  0  0  0
   74.0841   42.1338   39.9932 O   0  0  0  0  0  0  0  0  0  0  0  0
   73.1938   40.0880   39.6239 N   0  0  0  0  0  0  0  0  0  0  0  0
   73.2186   38.7500   39.3126 C   0  0  0  0  0  0  0  0  0  0  0  0
   72.1937   38.0966   39.2059 O   0  0  0  0  0  0  0  0  0  0  0  0
   74.5816   38.1514   39.0587 C   0  0  0  0  0  0  0  0  0  0  0  0
   75.6596   38.9010   39.8215 C   0  0  0  0  0  0  0  0  0  0  0  0
   79.5457   41.7737   44.5187 H   0  0  0  0  0  0  0  0  0  0  0  0
   78.3069   40.7968   43.7842 H   0  0  0  0  0  0  0  0  0  0  0  0
   78.9012   44.6454   39.3919 H   0  0  0  0  0  0  0  0  0  0  0  0
   80.3747   45.2063   41.3275 H   0  0  0  0  0  0  0  0  0  0  0  0
   80.3461   43.8386   43.3662 H   0  0  0  0  0  0  0  0  0  0  0  0
   75.7597   40.4746   38.3529 H   0  0  0  0  0  0  0  0  0  0  0  0
   72.2785   40.4897   39.7850 H   0  0  0  0  0  0  0  0  0  0  0  0
   74.5671   37.1037   39.3758 H   0  0  0  0  0  0  0  0  0  0  0  0
   74.7687   38.1767   37.9807 H   0  0  0  0  0  0  0  0  0  0  0  0
   75.4753   38.7744   40.8923 H   0  0  0  0  0  0  0  0  0  0  0  0
   76.6443   38.4698   39.6139 H   0  0  0  0  0  0  0  0  0  0  0  0
  1  2  1  0  0  0  0
  1 21  1  0  0  0  0
  1 22  1  0  0  0  0
  2  3  1  0  0  0  0
  2 12  2  0  0  0  0
  3  9  2  0  0  0  0
  3  4  1  0  0  0  0
  4  5  2  0  0  0  0
  4  6  1  0  0  0  0
  6  7  1  0  0  0  0
 13  6  1  0  0  0  0
  7  8  2  0  0  0  0
  7  9  1  0  0  0  0
  9 10  1  0  0  0  0
 10 23  1  0  0  0  0
 10 11  2  0  0  0  0
 11 12  1  0  0  0  0
 11 24  1  0  0  0  0
 12 25  1  0  0  0  0
 13 26  1  0  0  0  0
 13 14  1  0  0  0  0
 13 20  1  0  0  0  0
 14 15  2  0  0  0  0
 14 16  1  0  0  0  0
 16 27  1  0  0  0  0
 16 17  1  0  0  0  0
 17 18  2  0  0  0  0
 17 19  1  0  0  0  0
 19 28  1  0  0  0  0
 19 29  1  0  0  0  0
 19 20  1  0  0  0  0
 20 30  1  0  0  0  0
 20 31  1  0  0  0  0
M  ZZC   1 n1
M  ZZC   2 c1
M  ZZC   3 c2
M  ZZC   4 c3
M  ZZC   5 o1
M  ZZC   6 n2
M  ZZC   7 c4
M  ZZC   8 o2
M  ZZC   9 c5
M  ZZC  10 c6
M  ZZC  11 c7
M  ZZC  12 c8
M  ZZC  13 c9
M  ZZC  14 c10
M  ZZC  15 o3
M  ZZC  16 n3
M  ZZC  17 c11
M  ZZC  18 o4
M  ZZC  19 c12
M  ZZC  20 c13
M  ZZC  21 h11
M  ZZC  22 h12
M  ZZC  23 h61
M  ZZC  24 h71
M  ZZC  25 h81
M  ZZC  26 h91
M  ZZC  27 h31
M  ZZC  28 h121
M  ZZC  29 h122
M  ZZC  30 h131
M  ZZC  31 h132
M  ZZM   1 40
M  ZZI   1 224
M  ZZM   2 37
M  ZZI   2 124
M  ZZM   3 37
M  ZZI   3 124
M  ZZM   4 3
M  ZZI   4 121
M  ZZM   5 7
M  ZZI   5 81
M  ZZM   6 10
M  ZZI   6 192
M  ZZM   7 3
M  ZZI   7 121
M  ZZM   8 7
M  ZZI   8 81
M  ZZM   9 37
M  ZZI   9 124
M  ZZM  10 37
M  ZZI  10 125
M  ZZM  11 37
M  ZZI  11 125
M  ZZM  12 37
M  ZZI  12 125
M  ZZM  13 1
M  ZZI  13 113
M  ZZM  14 3
M  ZZI  14 121
M  ZZM  15 7
M  ZZI  15 81
M  ZZM  16 10
M  ZZI  16 191
M  ZZM  17 3
M  ZZI  17 121
M  ZZM  18 7
M  ZZI  18 81
M  ZZM  19 1
M  ZZI  19 112
M  ZZM  20 1
M  ZZI  20 112
M  ZZM  21 28
M  ZZI  21 11
M  ZZM  22 28
M  ZZI  22 11
M  ZZM  23 5
M  ZZI  23 1
M  ZZM  24 5
M  ZZI  24 1
M  ZZM  25 5
M  ZZI  25 1
M  ZZM  26 5
M  ZZI  26 1
M  ZZM  27 28
M  ZZI  27 11
M  ZZM  28 5
M  ZZI  28 1
M  ZZM  29 5
M  ZZI  29 1
M  ZZM  30 5
M  ZZI  30 1
M  ZZM  31 5
M  ZZI  31 1
M  END
> <IX>
1

> <NAME>
Cereblon_4OTR_1.pdb

> <Score>
-18.619636

> <Natom>
31

> <Nflex>
1

> <Hbond>
-3.705141

> <Hphob>
-3.560081

> <VwInt>
-24.277479

> <Dsolv>
15.21022

> <SolEl>
6.680613

> <Eintl>
1.667056

> <RecConf>
ND

> <projPath>
Cereblon_maps/

> <NAME_>
Cereblon_4OTR_1.pdb

$$$$
