Cereblon_5V9O_3.pdb
  MOLSOFT 04032206273D

 30 32  0  0  1  0  0  0  0  0999 V2000
   74.9527   37.6963   39.0762 C   0  0  0  0  0  0  0  0  0  0  0  0
   74.4910   38.9708   38.7976 C   0  0  0  0  0  0  0  0  0  0  0  0
   75.0118   40.0449   39.4650 C   0  0  0  0  0  0  0  0  0  0  0  0
   74.3288   41.2498   38.9955 C   0  0  0  0  0  0  0  0  0  0  0  0
   74.5390   42.3697   39.4382 O   0  0  0  0  0  0  0  0  0  0  0  0
   73.4494   40.8477   38.0048 N   0  0  0  0  0  0  0  0  0  0  0  0
   72.5665   41.7609   37.2710 C   0  0  2  0  0  0  0  0  0  0  0  0
   71.0817   41.5532   37.5697 C   0  0  0  0  0  0  0  0  0  0  0  0
   70.6418   40.9013   38.5050 O   0  0  0  0  0  0  0  0  0  0  0  0
   70.2231   42.1938   36.7073 N   0  0  0  0  0  0  0  0  0  0  0  0
   70.5257   42.8334   35.5326 C   0  0  0  0  0  0  0  0  0  0  0  0
   69.6621   43.3737   34.8612 O   0  0  0  0  0  0  0  0  0  0  0  0
   71.9846   42.8670   35.1436 C   0  0  0  0  0  0  0  0  0  0  0  0
   72.7662   41.7194   35.7651 C   0  0  0  0  0  0  0  0  0  0  0  0
   73.4550   39.4066   37.8227 C   0  0  0  0  0  0  0  0  0  0  0  0
   76.0161   39.9405   40.4098 C   0  0  0  0  0  0  0  0  0  0  0  0
   76.4911   38.6668   40.6826 C   0  0  0  0  0  0  0  0  0  0  0  0
   75.9592   37.5591   40.0256 C   0  0  0  0  0  0  0  0  0  0  0  0
   74.5497   36.8281   38.5625 H   0  0  0  0  0  0  0  0  0  0  0  0
   72.8244   42.7692   37.6008 H   0  0  0  0  0  0  0  0  0  0  0  0
   69.2366   42.1385   36.9315 H   0  0  0  0  0  0  0  0  0  0  0  0
   72.0544   42.8114   34.0531 H   0  0  0  0  0  0  0  0  0  0  0  0
   72.3925   43.8296   35.4699 H   0  0  0  0  0  0  0  0  0  0  0  0
   72.4248   40.7629   35.3528 H   0  0  0  0  0  0  0  0  0  0  0  0
   73.8283   41.8167   35.5195 H   0  0  0  0  0  0  0  0  0  0  0  0
   73.7397   39.1632   36.7934 H   0  0  0  0  0  0  0  0  0  0  0  0
   72.4718   38.9923   38.0686 H   0  0  0  0  0  0  0  0  0  0  0  0
   76.4162   40.8143   40.9159 H   0  0  0  0  0  0  0  0  0  0  0  0
   77.2822   38.5332   41.4143 H   0  0  0  0  0  0  0  0  0  0  0  0
   76.3436   36.5700   40.2545 H   0  0  0  0  0  0  0  0  0  0  0  0
  1 19  1  0  0  0  0
  1 18  2  0  0  0  0
  1  2  1  0  0  0  0
  2  3  2  0  0  0  0
  2 15  1  0  0  0  0
  3 16  1  0  0  0  0
  3  4  1  0  0  0  0
  4  6  1  0  0  0  0
  4  5  2  0  0  0  0
  6 15  1  0  0  0  0
  7  6  1  0  0  0  0
  7 20  1  0  0  0  0
  7  8  1  0  0  0  0
  7 14  1  0  0  0  0
  8  9  2  0  0  0  0
  8 10  1  0  0  0  0
 10 21  1  0  0  0  0
 10 11  1  0  0  0  0
 11 12  2  0  0  0  0
 11 13  1  0  0  0  0
 13 22  1  0  0  0  0
 13 23  1  0  0  0  0
 13 14  1  0  0  0  0
 14 24  1  0  0  0  0
 14 25  1  0  0  0  0
 15 26  1  0  0  0  0
 15 27  1  0  0  0  0
 16 17  2  0  0  0  0
 16 28  1  0  0  0  0
 17 18  1  0  0  0  0
 17 29  1  0  0  0  0
 18 30  1  0  0  0  0
M  ZZC   1 c1
M  ZZC   2 c2
M  ZZC   3 c3
M  ZZC   4 c4
M  ZZC   5 o1
M  ZZC   6 n1
M  ZZC   7 c5
M  ZZC   8 c6
M  ZZC   9 o2
M  ZZC  10 n2
M  ZZC  11 c7
M  ZZC  12 o3
M  ZZC  13 c8
M  ZZC  14 c9
M  ZZC  15 c10
M  ZZC  16 c11
M  ZZC  17 c12
M  ZZC  18 c13
M  ZZC  19 h11
M  ZZC  20 h51
M  ZZC  21 h21
M  ZZC  22 h81
M  ZZC  23 h82
M  ZZC  24 h91
M  ZZC  25 h92
M  ZZC  26 h101
M  ZZC  27 h102
M  ZZC  28 h111
M  ZZC  29 h121
M  ZZC  30 h131
M  ZZM   1 37
M  ZZI   1 125
M  ZZM   2 37
M  ZZI   2 124
M  ZZM   3 37
M  ZZI   3 124
M  ZZM   4 3
M  ZZI   4 121
M  ZZM   5 7
M  ZZI   5 81
M  ZZM   6 10
M  ZZI   6 192
M  ZZM   7 1
M  ZZI   7 113
M  ZZM   8 3
M  ZZI   8 121
M  ZZM   9 7
M  ZZI   9 81
M  ZZM  10 10
M  ZZI  10 191
M  ZZM  11 3
M  ZZI  11 121
M  ZZM  12 7
M  ZZI  12 81
M  ZZM  13 1
M  ZZI  13 112
M  ZZM  14 1
M  ZZI  14 112
M  ZZM  15 1
M  ZZI  15 112
M  ZZM  16 37
M  ZZI  16 125
M  ZZM  17 37
M  ZZI  17 125
M  ZZM  18 37
M  ZZI  18 125
M  ZZM  19 5
M  ZZI  19 1
M  ZZM  20 5
M  ZZI  20 1
M  ZZM  21 28
M  ZZI  21 11
M  ZZM  22 5
M  ZZI  22 1
M  ZZM  23 5
M  ZZI  23 1
M  ZZM  24 5
M  ZZI  24 1
M  ZZM  25 5
M  ZZI  25 1
M  ZZM  26 5
M  ZZI  26 1
M  ZZM  27 5
M  ZZI  27 1
M  ZZM  28 5
M  ZZI  28 1
M  ZZM  29 5
M  ZZI  29 1
M  ZZM  30 5
M  ZZI  30 1
M  END
> <IX>
1

> <NAME>
Cereblon_5V9O_3.pdb

> <Score>
-15.535109

> <Natom>
30

> <Nflex>
1

> <Hbond>
-3.693209

> <Hphob>
-3.511046

> <VwInt>
-20.293596

> <Dsolv>
12.884298

> <SolEl>
8.389551

> <Eintl>
1.090631

> <RecConf>
ND

> <projPath>
Cereblon_maps/

> <NAME_>
Cereblon_5V9O_3.pdb

$$$$
