Cereblon_1HWK_29.pdb
  MOLSOFT 04032206193D

 30 32  0  0  1  0  0  0  0  0999 V2000
   75.2595   39.9251   40.0784 C   0  0  0  0  0  0  0  0  0  0  0  0
   74.5297   40.5210   39.0645 C   0  0  0  0  0  0  0  0  0  0  0  0
   74.9234   41.7235   38.5559 C   0  0  0  0  0  0  0  0  0  0  0  0
   74.0052   42.0888   37.4777 C   0  0  0  0  0  0  0  0  0  0  0  0
   74.1577   43.0945   36.8050 O   0  0  0  0  0  0  0  0  0  0  0  0
   73.0473   41.0919   37.4004 N   0  0  0  0  0  0  0  0  0  0  0  0
   71.9269   40.9832   36.4448 C   0  0  1  0  0  0  0  0  0  0  0  0
   70.5683   41.0211   37.1452 C   0  0  0  0  0  0  0  0  0  0  0  0
   70.1734   40.1403   37.8942 O   0  0  0  0  0  0  0  0  0  0  0  0
   69.7708   42.1127   36.9192 N   0  0  0  0  0  0  0  0  0  0  0  0
   70.0236   43.2242   36.1758 C   0  0  0  0  0  0  0  0  0  0  0  0
   69.1863   44.1036   36.0856 O   0  0  0  0  0  0  0  0  0  0  0  0
   71.3868   43.3174   35.5607 C   0  0  0  0  0  0  0  0  0  0  0  0
   71.9403   41.9346   35.2427 C   0  0  0  0  0  0  0  0  0  0  0  0
   73.3016   40.0435   38.3787 C   0  0  0  0  0  0  0  0  0  0  0  0
   76.0260   42.4187   39.0170 C   0  0  0  0  0  0  0  0  0  0  0  0
   76.7426   41.8416   40.0530 C   0  0  0  0  0  0  0  0  0  0  0  0
   76.3659   40.6054   40.5726 C   0  0  0  0  0  0  0  0  0  0  0  0
   74.9756   38.9579   40.4812 H   0  0  0  0  0  0  0  0  0  0  0  0
   72.0173   39.9738   36.0279 H   0  0  0  0  0  0  0  0  0  0  0  0
   68.8481   42.0882   37.3358 H   0  0  0  0  0  0  0  0  0  0  0  0
   71.2987   43.8981   34.6389 H   0  0  0  0  0  0  0  0  0  0  0  0
   72.0192   43.8800   36.2498 H   0  0  0  0  0  0  0  0  0  0  0  0
   71.3112   41.5002   34.4567 H   0  0  0  0  0  0  0  0  0  0  0  0
   72.9426   42.0146   34.8140 H   0  0  0  0  0  0  0  0  0  0  0  0
   73.4699   39.0920   37.8621 H   0  0  0  0  0  0  0  0  0  0  0  0
   72.4641   39.9740   39.0804 H   0  0  0  0  0  0  0  0  0  0  0  0
   76.3211   43.3727   38.5919 H   0  0  0  0  0  0  0  0  0  0  0  0
   77.6114   42.3539   40.4554 H   0  0  0  0  0  0  0  0  0  0  0  0
   76.9494   40.1664   41.3761 H   0  0  0  0  0  0  0  0  0  0  0  0
  1 19  1  0  0  0  0
  1 18  2  0  0  0  0
  1  2  1  0  0  0  0
  2  3  2  0  0  0  0
  2 15  1  0  0  0  0
  3 16  1  0  0  0  0
  3  4  1  0  0  0  0
  4  6  1  0  0  0  0
  4  5  2  0  0  0  0
  6 15  1  0  0  0  0
  7  6  1  0  0  0  0
  7 20  1  0  0  0  0
  7  8  1  0  0  0  0
  7 14  1  0  0  0  0
  8  9  2  0  0  0  0
  8 10  1  0  0  0  0
 10 21  1  0  0  0  0
 10 11  1  0  0  0  0
 11 12  2  0  0  0  0
 11 13  1  0  0  0  0
 13 22  1  0  0  0  0
 13 23  1  0  0  0  0
 13 14  1  0  0  0  0
 14 24  1  0  0  0  0
 14 25  1  0  0  0  0
 15 26  1  0  0  0  0
 15 27  1  0  0  0  0
 16 17  2  0  0  0  0
 16 28  1  0  0  0  0
 17 18  1  0  0  0  0
 17 29  1  0  0  0  0
 18 30  1  0  0  0  0
M  ZZC   1 c1
M  ZZC   2 c2
M  ZZC   3 c3
M  ZZC   4 c4
M  ZZC   5 o1
M  ZZC   6 n1
M  ZZC   7 c5
M  ZZC   8 c6
M  ZZC   9 o2
M  ZZC  10 n2
M  ZZC  11 c7
M  ZZC  12 o3
M  ZZC  13 c8
M  ZZC  14 c9
M  ZZC  15 c10
M  ZZC  16 c11
M  ZZC  17 c12
M  ZZC  18 c13
M  ZZC  19 h11
M  ZZC  20 h51
M  ZZC  21 h21
M  ZZC  22 h81
M  ZZC  23 h82
M  ZZC  24 h91
M  ZZC  25 h92
M  ZZC  26 h101
M  ZZC  27 h102
M  ZZC  28 h111
M  ZZC  29 h121
M  ZZC  30 h131
M  ZZM   1 37
M  ZZI   1 125
M  ZZM   2 37
M  ZZI   2 124
M  ZZM   3 37
M  ZZI   3 124
M  ZZM   4 3
M  ZZI   4 121
M  ZZM   5 7
M  ZZI   5 81
M  ZZM   6 10
M  ZZI   6 192
M  ZZM   7 1
M  ZZI   7 113
M  ZZM   8 3
M  ZZI   8 121
M  ZZM   9 7
M  ZZI   9 81
M  ZZM  10 10
M  ZZI  10 191
M  ZZM  11 3
M  ZZI  11 121
M  ZZM  12 7
M  ZZI  12 81
M  ZZM  13 1
M  ZZI  13 112
M  ZZM  14 1
M  ZZI  14 112
M  ZZM  15 1
M  ZZI  15 112
M  ZZM  16 37
M  ZZI  16 125
M  ZZM  17 37
M  ZZI  17 125
M  ZZM  18 37
M  ZZI  18 125
M  ZZM  19 5
M  ZZI  19 1
M  ZZM  20 5
M  ZZI  20 1
M  ZZM  21 28
M  ZZI  21 11
M  ZZM  22 5
M  ZZI  22 1
M  ZZM  23 5
M  ZZI  23 1
M  ZZM  24 5
M  ZZI  24 1
M  ZZM  25 5
M  ZZI  25 1
M  ZZM  26 5
M  ZZI  26 1
M  ZZM  27 5
M  ZZI  27 1
M  ZZM  28 5
M  ZZI  28 1
M  ZZM  29 5
M  ZZI  29 1
M  ZZM  30 5
M  ZZI  30 1
M  END
> <IX>
1

> <NAME>
Cereblon_1HWK_29.pdb

> <Score>
-17.117156

> <Natom>
30

> <Nflex>
1

> <Hbond>
-4.501871

> <Hphob>
-3.722739

> <VwInt>
-21.608894

> <Dsolv>
13.97748

> <SolEl>
5.201814

> <Eintl>
6.432333

> <RecConf>
ND

> <projPath>
Cereblon_maps/

> <NAME_>
Cereblon_1HWK_29.pdb

$$$$
