Cereblon_5LLI_11.pdb
  MOLSOFT 04032206263D

 31 33  0  0  1  0  0  0  0  0999 V2000
   75.3847   36.6213   39.2012 N   0  0  0  0  0  0  0  0  0  0  0  0
   75.6534   37.8937   39.7296 C   0  0  0  0  0  0  0  0  0  0  0  0
   75.0183   39.0353   39.2662 C   0  0  0  0  0  0  0  0  0  0  0  0
   73.9614   39.1758   38.2648 C   0  0  0  0  0  0  0  0  0  0  0  0
   73.4454   38.2358   37.6765 O   0  0  0  0  0  0  0  0  0  0  0  0
   73.6991   40.5266   38.1528 N   0  0  0  0  0  0  0  0  0  0  0  0
   74.4577   41.2408   39.0635 C   0  0  0  0  0  0  0  0  0  0  0  0
   74.4494   42.4299   39.3416 O   0  0  0  0  0  0  0  0  0  0  0  0
   75.3286   40.2765   39.7280 C   0  0  0  0  0  0  0  0  0  0  0  0
   76.3177   40.4897   40.6693 C   0  0  0  0  0  0  0  0  0  0  0  0
   76.9927   39.3678   41.1297 C   0  0  0  0  0  0  0  0  0  0  0  0
   76.6718   38.0942   40.6585 C   0  0  0  0  0  0  0  0  0  0  0  0
   72.6715   41.0648   37.2487 C   0  0  1  0  0  0  0  0  0  0  0  0
   71.3619   41.2709   38.0033 C   0  0  0  0  0  0  0  0  0  0  0  0
   71.0435   40.6177   38.9862 O   0  0  0  0  0  0  0  0  0  0  0  0
   70.4951   42.1927   37.4622 N   0  0  0  0  0  0  0  0  0  0  0  0
   70.6894   43.0374   36.4009 C   0  0  0  0  0  0  0  0  0  0  0  0
   69.8670   43.8931   36.1112 O   0  0  0  0  0  0  0  0  0  0  0  0
   71.9624   42.8231   35.6216 C   0  0  0  0  0  0  0  0  0  0  0  0
   73.0880   42.3423   36.5236 C   0  0  0  0  0  0  0  0  0  0  0  0
   75.7445   35.7984   39.6805 H   0  0  0  0  0  0  0  0  0  0  0  0
   74.5579   36.5131   38.6106 H   0  0  0  0  0  0  0  0  0  0  0  0
   76.5711   41.4850   41.0217 H   0  0  0  0  0  0  0  0  0  0  0  0
   77.7869   39.4862   41.8612 H   0  0  0  0  0  0  0  0  0  0  0  0
   77.2344   37.2423   41.0268 H   0  0  0  0  0  0  0  0  0  0  0  0
   72.4619   40.2938   36.4985 H   0  0  0  0  0  0  0  0  0  0  0  0
   69.6241   42.3234   37.9558 H   0  0  0  0  0  0  0  0  0  0  0  0
   71.7635   42.1034   34.8209 H   0  0  0  0  0  0  0  0  0  0  0  0
   72.2417   43.7739   35.1638 H   0  0  0  0  0  0  0  0  0  0  0  0
   73.9916   42.1628   35.9322 H   0  0  0  0  0  0  0  0  0  0  0  0
   73.3326   43.1371   37.2333 H   0  0  0  0  0  0  0  0  0  0  0  0
  1  2  1  0  0  0  0
  1 21  1  0  0  0  0
  1 22  1  0  0  0  0
  2  3  1  0  0  0  0
  2 12  2  0  0  0  0
  3  9  2  0  0  0  0
  3  4  1  0  0  0  0
  4  5  2  0  0  0  0
  4  6  1  0  0  0  0
  6  7  1  0  0  0  0
 13  6  1  0  0  0  0
  7  8  2  0  0  0  0
  7  9  1  0  0  0  0
  9 10  1  0  0  0  0
 10 23  1  0  0  0  0
 10 11  2  0  0  0  0
 11 12  1  0  0  0  0
 11 24  1  0  0  0  0
 12 25  1  0  0  0  0
 13 26  1  0  0  0  0
 13 14  1  0  0  0  0
 13 20  1  0  0  0  0
 14 15  2  0  0  0  0
 14 16  1  0  0  0  0
 16 27  1  0  0  0  0
 16 17  1  0  0  0  0
 17 18  2  0  0  0  0
 17 19  1  0  0  0  0
 19 28  1  0  0  0  0
 19 29  1  0  0  0  0
 19 20  1  0  0  0  0
 20 30  1  0  0  0  0
 20 31  1  0  0  0  0
M  ZZC   1 n1
M  ZZC   2 c1
M  ZZC   3 c2
M  ZZC   4 c3
M  ZZC   5 o1
M  ZZC   6 n2
M  ZZC   7 c4
M  ZZC   8 o2
M  ZZC   9 c5
M  ZZC  10 c6
M  ZZC  11 c7
M  ZZC  12 c8
M  ZZC  13 c9
M  ZZC  14 c10
M  ZZC  15 o3
M  ZZC  16 n3
M  ZZC  17 c11
M  ZZC  18 o4
M  ZZC  19 c12
M  ZZC  20 c13
M  ZZC  21 h11
M  ZZC  22 h12
M  ZZC  23 h61
M  ZZC  24 h71
M  ZZC  25 h81
M  ZZC  26 h91
M  ZZC  27 h31
M  ZZC  28 h121
M  ZZC  29 h122
M  ZZC  30 h131
M  ZZC  31 h132
M  ZZM   1 40
M  ZZI   1 224
M  ZZM   2 37
M  ZZI   2 124
M  ZZM   3 37
M  ZZI   3 124
M  ZZM   4 3
M  ZZI   4 121
M  ZZM   5 7
M  ZZI   5 81
M  ZZM   6 10
M  ZZI   6 192
M  ZZM   7 3
M  ZZI   7 121
M  ZZM   8 7
M  ZZI   8 81
M  ZZM   9 37
M  ZZI   9 124
M  ZZM  10 37
M  ZZI  10 125
M  ZZM  11 37
M  ZZI  11 125
M  ZZM  12 37
M  ZZI  12 125
M  ZZM  13 1
M  ZZI  13 113
M  ZZM  14 3
M  ZZI  14 121
M  ZZM  15 7
M  ZZI  15 81
M  ZZM  16 10
M  ZZI  16 191
M  ZZM  17 3
M  ZZI  17 121
M  ZZM  18 7
M  ZZI  18 81
M  ZZM  19 1
M  ZZI  19 112
M  ZZM  20 1
M  ZZI  20 112
M  ZZM  21 28
M  ZZI  21 11
M  ZZM  22 28
M  ZZI  22 11
M  ZZM  23 5
M  ZZI  23 1
M  ZZM  24 5
M  ZZI  24 1
M  ZZM  25 5
M  ZZI  25 1
M  ZZM  26 5
M  ZZI  26 1
M  ZZM  27 28
M  ZZI  27 11
M  ZZM  28 5
M  ZZI  28 1
M  ZZM  29 5
M  ZZI  29 1
M  ZZM  30 5
M  ZZI  30 1
M  ZZM  31 5
M  ZZI  31 1
M  END
> <IX>
1

> <NAME>
Cereblon_5LLI_11.pdb

> <Score>
-20.670769

> <Natom>
31

> <Nflex>
1

> <Hbond>
-4.556466

> <Hphob>
-3.545199

> <VwInt>
-22.809717

> <Dsolv>
13.554754

> <SolEl>
7.591357

> <Eintl>
0.442883

> <RecConf>
ND

> <projPath>
Cereblon_maps/

> <NAME_>
Cereblon_5LLI_11.pdb

$$$$
