Cereblon_5VBP_2.pdb
  MOLSOFT 04032206283D

 30 32  0  0  0  0  0  0  0  0999 V2000
   77.9443   40.6616   43.7211 N   0  0  0  0  0  0  0  0  0  0  0  0
   78.6416   41.7161   43.1089 C   0  0  0  0  0  0  0  0  0  0  0  0
   78.3022   42.2240   41.8476 C   0  0  0  0  0  0  0  0  0  0  0  0
   77.2607   41.6106   41.0088 C   0  0  0  0  0  0  0  0  0  0  0  0
   76.7739   40.5471   41.3767 O   0  0  0  0  0  0  0  0  0  0  0  0
   76.9314   42.3139   39.8478 N   0  0  0  0  0  0  0  0  0  0  0  0
   75.8758   41.9674   38.9919 C   0  0  0  0  0  0  0  0  0  0  0  0
   75.7318   42.5073   37.7624 C   0  0  0  0  0  0  0  0  0  0  0  0
   76.4375   43.2763   37.0762 O   0  5  0  0  0  0  0  0  0  0  0  0
   74.6630   42.1649   36.9944 N   0  0  0  0  0  0  0  0  0  0  0  0
   73.5805   41.4058   37.3501 C   0  0  0  0  0  0  0  0  0  0  0  0
   72.6926   41.1111   36.5639 O   0  0  0  0  0  0  0  0  0  0  0  0
   73.5135   41.0480   38.8061 C   0  0  0  0  0  0  0  0  0  0  0  0
   74.8809   40.9339   39.4520 C   0  0  0  0  0  0  0  0  0  0  0  0
   77.6497   43.4183   39.4379 N   0  0  0  0  0  0  0  0  0  0  0  0
   78.6321   43.8758   40.0772 N   0  0  0  0  0  0  0  0  0  0  0  0
   78.9509   43.3206   41.3180 C   0  0  0  0  0  0  0  0  0  0  0  0
   79.9623   43.9227   42.0499 C   0  0  0  0  0  0  0  0  0  0  0  0
   80.2976   43.4548   43.3044 C   0  0  0  0  0  0  0  0  0  0  0  0
   79.6229   42.3733   43.8338 C   0  0  0  0  0  0  0  0  0  0  0  0
   78.3899   40.1884   44.5043 H   0  0  0  0  0  0  0  0  0  0  0  0
   77.3128   40.1106   43.1383 H   0  0  0  0  0  0  0  0  0  0  0  0
   74.6977   42.5322   36.0546 H   0  0  0  0  0  0  0  0  0  0  0  0
   72.9268   41.8234   39.3087 H   0  0  0  0  0  0  0  0  0  0  0  0
   72.9698   40.1044   38.9172 H   0  0  0  0  0  0  0  0  0  0  0  0
   75.2935   39.9367   39.2612 H   0  0  0  0  0  0  0  0  0  0  0  0
   74.7040   41.0152   40.5258 H   0  0  0  0  0  0  0  0  0  0  0  0
   80.4829   44.7844   41.6447 H   0  0  0  0  0  0  0  0  0  0  0  0
   81.0771   43.9431   43.8823 H   0  0  0  0  0  0  0  0  0  0  0  0
   79.8758   42.0360   44.8343 H   0  0  0  0  0  0  0  0  0  0  0  0
  1  2  1  0  0  0  0
  1 21  1  0  0  0  0
  1 22  1  0  0  0  0
  2  3  1  0  0  0  0
  2 20  2  0  0  0  0
  3  4  1  0  0  0  0
  3 17  2  0  0  0  0
  4  6  1  0  0  0  0
  4  5  2  0  0  0  0
  6  7  1  0  0  0  0
  6 15  1  0  0  0  0
  7  8  2  0  0  0  0
  7 14  1  0  0  0  0
  8  9  1  0  0  0  0
  8 10  1  0  0  0  0
 10 11  1  0  0  0  0
 10 23  1  0  0  0  0
 11 13  1  0  0  0  0
 11 12  2  0  0  0  0
 13 14  1  0  0  0  0
 13 24  1  0  0  0  0
 13 25  1  0  0  0  0
 14 26  1  0  0  0  0
 14 27  1  0  0  0  0
 15 16  2  0  0  0  0
 16 17  1  0  0  0  0
 17 18  1  0  0  0  0
 18 19  2  0  0  0  0
 18 28  1  0  0  0  0
 19 20  1  0  0  0  0
 19 29  1  0  0  0  0
 20 30  1  0  0  0  0
M  ZZC   1 n1
M  ZZC   2 c1
M  ZZC   3 c2
M  ZZC   4 c3
M  ZZC   5 o1
M  ZZC   6 n2
M  ZZC   7 c4
M  ZZC   8 c5
M  ZZC   9 o2
M  ZZC  10 n3
M  ZZC  11 c6
M  ZZC  12 o3
M  ZZC  13 c7
M  ZZC  14 c8
M  ZZC  15 n4
M  ZZC  16 n5
M  ZZC  17 c9
M  ZZC  18 c10
M  ZZC  19 c11
M  ZZC  20 c12
M  ZZC  21 h11
M  ZZC  22 h12
M  ZZC  23 h31
M  ZZC  24 h71
M  ZZC  25 h72
M  ZZC  26 h81
M  ZZC  27 h82
M  ZZC  28 h101
M  ZZC  29 h111
M  ZZC  30 h121
M  ZZM   1 40
M  ZZI   1 224
M  ZZM   2 37
M  ZZI   2 124
M  ZZM   3 37
M  ZZI   3 124
M  ZZM   4 3
M  ZZI   4 121
M  ZZM   5 7
M  ZZI   5 81
M  ZZM   6 10
M  ZZI   6 191
M  ZZM   7 2
M  ZZI   7 120
M  ZZM   8 2
M  ZZI   8 120
M  ZZM   9 35
M  ZZI   9 53
M  ZZM  10 10
M  ZZI  10 191
M  ZZM  11 3
M  ZZI  11 121
M  ZZM  12 7
M  ZZI  12 81
M  ZZM  13 1
M  ZZI  13 112
M  ZZM  14 1
M  ZZI  14 112
M  ZZM  15 9
M  ZZI  15 220
M  ZZM  16 9
M  ZZI  16 220
M  ZZM  17 37
M  ZZI  17 124
M  ZZM  18 37
M  ZZI  18 125
M  ZZM  19 37
M  ZZI  19 125
M  ZZM  20 37
M  ZZI  20 125
M  ZZM  21 28
M  ZZI  21 11
M  ZZM  22 28
M  ZZI  22 11
M  ZZM  23 28
M  ZZI  23 11
M  ZZM  24 5
M  ZZI  24 1
M  ZZM  25 5
M  ZZI  25 1
M  ZZM  26 5
M  ZZI  26 1
M  ZZM  27 5
M  ZZI  27 1
M  ZZM  28 5
M  ZZI  28 1
M  ZZM  29 5
M  ZZI  29 1
M  ZZM  30 5
M  ZZI  30 1
M  CHG  1   9  -1
M  END
> <IX>
1

> <NAME>
Cereblon_5VBP_2.pdb

> <Score>
-21.585655

> <Natom>
30

> <Nflex>
0

> <Hbond>
-2.573497

> <Hphob>
-4.098101

> <VwInt>
-31.712724

> <Dsolv>
18.391973

> <SolEl>
7.408445

> <Eintl>
1.166982

> <RecConf>
ND

> <projPath>
Cereblon_maps/

> <NAME_>
Cereblon_5VBP_2.pdb

$$$$
