Cereblon_3LQ5_5.pdb
  MOLSOFT 04032206223D

 31 33  0  0  1  0  0  0  0  0999 V2000
   78.8138   41.6786   43.8109 N   0  0  0  0  0  0  0  0  0  0  0  0
   78.8958   42.4313   42.6295 C   0  0  0  0  0  0  0  0  0  0  0  0
   78.0939   42.1606   41.5336 C   0  0  0  0  0  0  0  0  0  0  0  0
   77.1729   41.0496   41.3284 C   0  0  0  0  0  0  0  0  0  0  0  0
   76.9899   40.1690   42.1558 O   0  0  0  0  0  0  0  0  0  0  0  0
   76.6387   41.2127   40.0654 N   0  0  0  0  0  0  0  0  0  0  0  0
   77.1612   42.3314   39.4487 C   0  0  0  0  0  0  0  0  0  0  0  0
   76.9513   42.7511   38.3180 O   0  0  0  0  0  0  0  0  0  0  0  0
   78.0922   42.9282   40.4083 C   0  0  0  0  0  0  0  0  0  0  0  0
   78.9052   44.0365   40.2861 C   0  0  0  0  0  0  0  0  0  0  0  0
   79.7234   44.3363   41.3696 C   0  0  0  0  0  0  0  0  0  0  0  0
   79.7097   43.5555   42.5270 C   0  0  0  0  0  0  0  0  0  0  0  0
   75.6200   40.3744   39.4293 C   0  0  2  0  0  0  0  0  0  0  0  0
   74.2487   40.9534   39.7322 C   0  0  0  0  0  0  0  0  0  0  0  0
   74.0789   42.1330   39.9918 O   0  0  0  0  0  0  0  0  0  0  0  0
   73.1874   40.0894   39.6130 N   0  0  0  0  0  0  0  0  0  0  0  0
   73.2119   38.7516   39.2997 C   0  0  0  0  0  0  0  0  0  0  0  0
   72.1868   38.1002   39.1840 O   0  0  0  0  0  0  0  0  0  0  0  0
   74.5756   38.1498   39.0560 C   0  0  0  0  0  0  0  0  0  0  0  0
   75.6527   38.9004   39.8194 C   0  0  0  0  0  0  0  0  0  0  0  0
   79.5298   41.7800   44.5272 H   0  0  0  0  0  0  0  0  0  0  0  0
   78.2781   40.8091   43.7940 H   0  0  0  0  0  0  0  0  0  0  0  0
   78.8987   44.6423   39.3877 H   0  0  0  0  0  0  0  0  0  0  0  0
   80.3757   45.2012   41.3215 H   0  0  0  0  0  0  0  0  0  0  0  0
   80.3461   43.8344   43.3613 H   0  0  0  0  0  0  0  0  0  0  0  0
   75.7549   40.4723   38.3508 H   0  0  0  0  0  0  0  0  0  0  0  0
   72.2717   40.4919   39.7700 H   0  0  0  0  0  0  0  0  0  0  0  0
   74.5577   37.1036   39.3773 H   0  0  0  0  0  0  0  0  0  0  0  0
   74.7678   38.1698   37.9788 H   0  0  0  0  0  0  0  0  0  0  0  0
   76.6375   38.4689   39.6132 H   0  0  0  0  0  0  0  0  0  0  0  0
   75.4675   38.7743   40.8900 H   0  0  0  0  0  0  0  0  0  0  0  0
  1  2  1  0  0  0  0
  1 21  1  0  0  0  0
  1 22  1  0  0  0  0
  2  3  1  0  0  0  0
  2 12  2  0  0  0  0
  3  9  2  0  0  0  0
  3  4  1  0  0  0  0
  4  5  2  0  0  0  0
  4  6  1  0  0  0  0
  6  7  1  0  0  0  0
 13  6  1  0  0  0  0
  7  8  2  0  0  0  0
  7  9  1  0  0  0  0
  9 10  1  0  0  0  0
 10 23  1  0  0  0  0
 10 11  2  0  0  0  0
 11 12  1  0  0  0  0
 11 24  1  0  0  0  0
 12 25  1  0  0  0  0
 13 26  1  0  0  0  0
 13 14  1  0  0  0  0
 13 20  1  0  0  0  0
 14 15  2  0  0  0  0
 14 16  1  0  0  0  0
 16 27  1  0  0  0  0
 16 17  1  0  0  0  0
 17 18  2  0  0  0  0
 17 19  1  0  0  0  0
 19 28  1  0  0  0  0
 19 29  1  0  0  0  0
 19 20  1  0  0  0  0
 20 30  1  0  0  0  0
 20 31  1  0  0  0  0
M  ZZC   1 n1
M  ZZC   2 c1
M  ZZC   3 c2
M  ZZC   4 c3
M  ZZC   5 o1
M  ZZC   6 n2
M  ZZC   7 c4
M  ZZC   8 o2
M  ZZC   9 c5
M  ZZC  10 c6
M  ZZC  11 c7
M  ZZC  12 c8
M  ZZC  13 c9
M  ZZC  14 c10
M  ZZC  15 o3
M  ZZC  16 n3
M  ZZC  17 c11
M  ZZC  18 o4
M  ZZC  19 c12
M  ZZC  20 c13
M  ZZC  21 h11
M  ZZC  22 h12
M  ZZC  23 h61
M  ZZC  24 h71
M  ZZC  25 h81
M  ZZC  26 h91
M  ZZC  27 h31
M  ZZC  28 h121
M  ZZC  29 h122
M  ZZC  30 h131
M  ZZC  31 h132
M  ZZM   1 40
M  ZZI   1 224
M  ZZM   2 37
M  ZZI   2 124
M  ZZM   3 37
M  ZZI   3 124
M  ZZM   4 3
M  ZZI   4 121
M  ZZM   5 7
M  ZZI   5 81
M  ZZM   6 10
M  ZZI   6 192
M  ZZM   7 3
M  ZZI   7 121
M  ZZM   8 7
M  ZZI   8 81
M  ZZM   9 37
M  ZZI   9 124
M  ZZM  10 37
M  ZZI  10 125
M  ZZM  11 37
M  ZZI  11 125
M  ZZM  12 37
M  ZZI  12 125
M  ZZM  13 1
M  ZZI  13 113
M  ZZM  14 3
M  ZZI  14 121
M  ZZM  15 7
M  ZZI  15 81
M  ZZM  16 10
M  ZZI  16 191
M  ZZM  17 3
M  ZZI  17 121
M  ZZM  18 7
M  ZZI  18 81
M  ZZM  19 1
M  ZZI  19 112
M  ZZM  20 1
M  ZZI  20 112
M  ZZM  21 28
M  ZZI  21 11
M  ZZM  22 28
M  ZZI  22 11
M  ZZM  23 5
M  ZZI  23 1
M  ZZM  24 5
M  ZZI  24 1
M  ZZM  25 5
M  ZZI  25 1
M  ZZM  26 5
M  ZZI  26 1
M  ZZM  27 28
M  ZZI  27 11
M  ZZM  28 5
M  ZZI  28 1
M  ZZM  29 5
M  ZZI  29 1
M  ZZM  30 5
M  ZZI  30 1
M  ZZM  31 5
M  ZZI  31 1
M  END
> <IX>
1

> <NAME>
Cereblon_3LQ5_5.pdb

> <Score>
-18.684474

> <Natom>
31

> <Nflex>
1

> <Hbond>
-3.680804

> <Hphob>
-3.586409

> <VwInt>
-24.252015

> <Dsolv>
15.241274

> <SolEl>
6.434323

> <Eintl>
1.675434

> <RecConf>
ND

> <projPath>
Cereblon_maps/

> <NAME_>
Cereblon_3LQ5_5.pdb

$$$$
