Cereblon_1EJ1_11.pdb
  MOLSOFT 04032206183D

 30 32  0  0  1  0  0  0  0  0999 V2000
   75.6730   37.9066   39.7455 C   0  0  0  0  0  0  0  0  0  0  0  0
   74.9805   39.0081   39.2698 C   0  0  0  0  0  0  0  0  0  0  0  0
   75.2942   40.2580   39.7232 C   0  0  0  0  0  0  0  0  0  0  0  0
   74.4123   41.2202   39.0624 C   0  0  0  0  0  0  0  0  0  0  0  0
   74.4174   42.4147   39.3182 O   0  0  0  0  0  0  0  0  0  0  0  0
   73.6371   40.5037   38.1631 N   0  0  0  0  0  0  0  0  0  0  0  0
   72.6058   41.0305   37.2534 C   0  0  1  0  0  0  0  0  0  0  0  0
   71.2806   41.2529   37.9816 C   0  0  0  0  0  0  0  0  0  0  0  0
   70.9146   40.5765   38.9319 O   0  0  0  0  0  0  0  0  0  0  0  0
   70.4494   42.2081   37.4426 N   0  0  0  0  0  0  0  0  0  0  0  0
   70.6656   43.0377   36.3752 C   0  0  0  0  0  0  0  0  0  0  0  0
   69.8622   43.9094   36.0803 O   0  0  0  0  0  0  0  0  0  0  0  0
   71.9270   42.7772   35.5936 C   0  0  0  0  0  0  0  0  0  0  0  0
   73.0411   42.2920   36.5065 C   0  0  0  0  0  0  0  0  0  0  0  0
   73.8748   39.0743   38.2776 C   0  0  0  0  0  0  0  0  0  0  0  0
   76.2976   40.5019   40.6433 C   0  0  0  0  0  0  0  0  0  0  0  0
   76.9955   39.4024   41.1211 C   0  0  0  0  0  0  0  0  0  0  0  0
   76.6845   38.1205   40.6746 C   0  0  0  0  0  0  0  0  0  0  0  0
   75.4421   36.9032   39.4017 H   0  0  0  0  0  0  0  0  0  0  0  0
   72.4199   40.2476   36.5088 H   0  0  0  0  0  0  0  0  0  0  0  0
   69.5752   42.3549   37.9261 H   0  0  0  0  0  0  0  0  0  0  0  0
   71.7073   42.0423   34.8118 H   0  0  0  0  0  0  0  0  0  0  0  0
   72.2258   43.7111   35.1128 H   0  0  0  0  0  0  0  0  0  0  0  0
   73.9428   42.0897   35.9197 H   0  0  0  0  0  0  0  0  0  0  0  0
   73.2928   43.0936   37.2064 H   0  0  0  0  0  0  0  0  0  0  0  0
   74.1667   38.6656   37.3044 H   0  0  0  0  0  0  0  0  0  0  0  0
   72.9695   38.5814   38.6482 H   0  0  0  0  0  0  0  0  0  0  0  0
   76.5397   41.5075   40.9716 H   0  0  0  0  0  0  0  0  0  0  0  0
   77.7911   39.5458   41.8458 H   0  0  0  0  0  0  0  0  0  0  0  0
   77.2453   37.2742   41.0584 H   0  0  0  0  0  0  0  0  0  0  0  0
  1 19  1  0  0  0  0
  1 18  2  0  0  0  0
  1  2  1  0  0  0  0
  2  3  2  0  0  0  0
  2 15  1  0  0  0  0
  3 16  1  0  0  0  0
  3  4  1  0  0  0  0
  4  6  1  0  0  0  0
  4  5  2  0  0  0  0
  6 15  1  0  0  0  0
  7  6  1  0  0  0  0
  7 20  1  0  0  0  0
  7  8  1  0  0  0  0
  7 14  1  0  0  0  0
  8  9  2  0  0  0  0
  8 10  1  0  0  0  0
 10 21  1  0  0  0  0
 10 11  1  0  0  0  0
 11 12  2  0  0  0  0
 11 13  1  0  0  0  0
 13 22  1  0  0  0  0
 13 23  1  0  0  0  0
 13 14  1  0  0  0  0
 14 24  1  0  0  0  0
 14 25  1  0  0  0  0
 15 26  1  0  0  0  0
 15 27  1  0  0  0  0
 16 17  2  0  0  0  0
 16 28  1  0  0  0  0
 17 18  1  0  0  0  0
 17 29  1  0  0  0  0
 18 30  1  0  0  0  0
M  ZZC   1 c1
M  ZZC   2 c2
M  ZZC   3 c3
M  ZZC   4 c4
M  ZZC   5 o1
M  ZZC   6 n1
M  ZZC   7 c5
M  ZZC   8 c6
M  ZZC   9 o2
M  ZZC  10 n2
M  ZZC  11 c7
M  ZZC  12 o3
M  ZZC  13 c8
M  ZZC  14 c9
M  ZZC  15 c10
M  ZZC  16 c11
M  ZZC  17 c12
M  ZZC  18 c13
M  ZZC  19 h11
M  ZZC  20 h51
M  ZZC  21 h21
M  ZZC  22 h81
M  ZZC  23 h82
M  ZZC  24 h91
M  ZZC  25 h92
M  ZZC  26 h101
M  ZZC  27 h102
M  ZZC  28 h111
M  ZZC  29 h121
M  ZZC  30 h131
M  ZZM   1 37
M  ZZI   1 125
M  ZZM   2 37
M  ZZI   2 124
M  ZZM   3 37
M  ZZI   3 124
M  ZZM   4 3
M  ZZI   4 121
M  ZZM   5 7
M  ZZI   5 81
M  ZZM   6 10
M  ZZI   6 192
M  ZZM   7 1
M  ZZI   7 113
M  ZZM   8 3
M  ZZI   8 121
M  ZZM   9 7
M  ZZI   9 81
M  ZZM  10 10
M  ZZI  10 191
M  ZZM  11 3
M  ZZI  11 121
M  ZZM  12 7
M  ZZI  12 81
M  ZZM  13 1
M  ZZI  13 112
M  ZZM  14 1
M  ZZI  14 112
M  ZZM  15 1
M  ZZI  15 112
M  ZZM  16 37
M  ZZI  16 125
M  ZZM  17 37
M  ZZI  17 125
M  ZZM  18 37
M  ZZI  18 125
M  ZZM  19 5
M  ZZI  19 1
M  ZZM  20 5
M  ZZI  20 1
M  ZZM  21 28
M  ZZI  21 11
M  ZZM  22 5
M  ZZI  22 1
M  ZZM  23 5
M  ZZI  23 1
M  ZZM  24 5
M  ZZI  24 1
M  ZZM  25 5
M  ZZI  25 1
M  ZZM  26 5
M  ZZI  26 1
M  ZZM  27 5
M  ZZI  27 1
M  ZZM  28 5
M  ZZI  28 1
M  ZZM  29 5
M  ZZI  29 1
M  ZZM  30 5
M  ZZI  30 1
M  END
> <IX>
1

> <NAME>
Cereblon_1EJ1_11.pdb

> <Score>
-20.763959

> <Natom>
30

> <Nflex>
1

> <Hbond>
-4.676939

> <Hphob>
-3.531313

> <VwInt>
-21.977488

> <Dsolv>
13.26377

> <SolEl>
5.789192

> <Eintl>
1.739116

> <RecConf>
ND

> <projPath>
Cereblon_maps/

> <NAME_>
Cereblon_1EJ1_11.pdb

$$$$
