Cereblon_5EKO_1.pdb
  MOLSOFT 04032206243D

 29 31  0  0  1  0  0  0  0  0999 V2000
   79.0041   42.4896   42.6725 C   0  0  0  0  0  0  0  0  0  0  0  0
   78.1852   42.1951   41.5968 C   0  0  0  0  0  0  0  0  0  0  0  0
   77.2674   41.0771   41.4111 C   0  0  0  0  0  0  0  0  0  0  0  0
   77.0872   40.2160   42.2584 O   0  0  0  0  0  0  0  0  0  0  0  0
   76.7265   41.2201   40.1468 N   0  0  0  0  0  0  0  0  0  0  0  0
   77.2232   42.3469   39.5235 C   0  0  0  0  0  0  0  0  0  0  0  0
   76.9877   42.7650   38.3972 O   0  0  0  0  0  0  0  0  0  0  0  0
   78.1582   42.9582   40.4683 C   0  0  0  0  0  0  0  0  0  0  0  0
   78.9575   44.0743   40.3262 C   0  0  0  0  0  0  0  0  0  0  0  0
   79.8007   44.3828   41.3880 C   0  0  0  0  0  0  0  0  0  0  0  0
   79.8238   43.6046   42.5460 C   0  0  0  0  0  0  0  0  0  0  0  0
   75.7182   40.3654   39.5133 C   0  0  2  0  0  0  0  0  0  0  0  0
   74.3387   40.9338   39.8022 C   0  0  0  0  0  0  0  0  0  0  0  0
   74.1508   42.1197   40.0177 O   0  0  0  0  0  0  0  0  0  0  0  0
   73.2883   40.0518   39.7262 N   0  0  0  0  0  0  0  0  0  0  0  0
   73.3269   38.7062   39.4536 C   0  0  0  0  0  0  0  0  0  0  0  0
   72.3115   38.0322   39.3948 O   0  0  0  0  0  0  0  0  0  0  0  0
   74.6912   38.1253   39.1768 C   0  0  0  0  0  0  0  0  0  0  0  0
   75.7730   38.8947   39.9141 C   0  0  0  0  0  0  0  0  0  0  0  0
   79.0151   41.8744   43.5679 H   0  0  0  0  0  0  0  0  0  0  0  0
   78.9278   44.6747   39.4259 H   0  0  0  0  0  0  0  0  0  0  0  0
   80.4501   45.2476   41.3184 H   0  0  0  0  0  0  0  0  0  0  0  0
   80.4916   43.8724   43.3597 H   0  0  0  0  0  0  0  0  0  0  0  0
   75.8576   40.4536   38.4338 H   0  0  0  0  0  0  0  0  0  0  0  0
   72.3698   40.4453   39.8893 H   0  0  0  0  0  0  0  0  0  0  0  0
   74.6979   37.0793   39.4999 H   0  0  0  0  0  0  0  0  0  0  0  0
   74.8530   38.1484   38.0948 H   0  0  0  0  0  0  0  0  0  0  0  0
   76.7586   38.4731   39.6904 H   0  0  0  0  0  0  0  0  0  0  0  0
   75.6105   38.7742   40.9888 H   0  0  0  0  0  0  0  0  0  0  0  0
  1 20  1  0  0  0  0
  1  2  1  0  0  0  0
  1 11  2  0  0  0  0
  2  3  1  0  0  0  0
  2  8  2  0  0  0  0
  3  4  2  0  0  0  0
  3  5  1  0  0  0  0
  5  6  1  0  0  0  0
 12  5  1  0  0  0  0
  6  7  2  0  0  0  0
  6  8  1  0  0  0  0
  8  9  1  0  0  0  0
  9 21  1  0  0  0  0
  9 10  2  0  0  0  0
 10 22  1  0  0  0  0
 10 11  1  0  0  0  0
 11 23  1  0  0  0  0
 12 24  1  0  0  0  0
 12 13  1  0  0  0  0
 12 19  1  0  0  0  0
 13 14  2  0  0  0  0
 13 15  1  0  0  0  0
 15 25  1  0  0  0  0
 15 16  1  0  0  0  0
 16 17  2  0  0  0  0
 16 18  1  0  0  0  0
 18 26  1  0  0  0  0
 18 27  1  0  0  0  0
 18 19  1  0  0  0  0
 19 28  1  0  0  0  0
 19 29  1  0  0  0  0
M  ZZC   1 c1
M  ZZC   2 c2
M  ZZC   3 c3
M  ZZC   4 o1
M  ZZC   5 n1
M  ZZC   6 c4
M  ZZC   7 o2
M  ZZC   8 c5
M  ZZC   9 c6
M  ZZC  10 c7
M  ZZC  11 c8
M  ZZC  12 c9
M  ZZC  13 c10
M  ZZC  14 o3
M  ZZC  15 n2
M  ZZC  16 c11
M  ZZC  17 o4
M  ZZC  18 c12
M  ZZC  19 c13
M  ZZC  20 h11
M  ZZC  21 h61
M  ZZC  22 h71
M  ZZC  23 h81
M  ZZC  24 h91
M  ZZC  25 h21
M  ZZC  26 h121
M  ZZC  27 h122
M  ZZC  28 h131
M  ZZC  29 h132
M  ZZM   1 37
M  ZZI   1 125
M  ZZM   2 37
M  ZZI   2 124
M  ZZM   3 3
M  ZZI   3 121
M  ZZM   4 7
M  ZZI   4 81
M  ZZM   5 10
M  ZZI   5 192
M  ZZM   6 3
M  ZZI   6 121
M  ZZM   7 7
M  ZZI   7 81
M  ZZM   8 37
M  ZZI   8 124
M  ZZM   9 37
M  ZZI   9 125
M  ZZM  10 37
M  ZZI  10 125
M  ZZM  11 37
M  ZZI  11 125
M  ZZM  12 1
M  ZZI  12 113
M  ZZM  13 3
M  ZZI  13 121
M  ZZM  14 7
M  ZZI  14 81
M  ZZM  15 10
M  ZZI  15 191
M  ZZM  16 3
M  ZZI  16 121
M  ZZM  17 7
M  ZZI  17 81
M  ZZM  18 1
M  ZZI  18 112
M  ZZM  19 1
M  ZZI  19 112
M  ZZM  20 5
M  ZZI  20 1
M  ZZM  21 5
M  ZZI  21 1
M  ZZM  22 5
M  ZZI  22 1
M  ZZM  23 5
M  ZZI  23 1
M  ZZM  24 5
M  ZZI  24 1
M  ZZM  25 28
M  ZZI  25 11
M  ZZM  26 5
M  ZZI  26 1
M  ZZM  27 5
M  ZZI  27 1
M  ZZM  28 5
M  ZZI  28 1
M  ZZM  29 5
M  ZZI  29 1
M  END
> <IX>
1

> <NAME>
Cereblon_5EKO_1.pdb

> <Score>
-19.472255

> <Natom>
29

> <Nflex>
1

> <Hbond>
-3.361784

> <Hphob>
-3.569016

> <VwInt>
-22.720934

> <Dsolv>
11.942444

> <SolEl>
5.60736

> <Eintl>
1.47924

> <RecConf>
ND

> <projPath>
Cereblon_maps/

> <NAME_>
Cereblon_5EKO_1.pdb

$$$$
