Cereblon_5E80_4.pdb
  MOLSOFT 04032206243D

 31 33  0  0  1  0  0  0  0  0999 V2000
   78.7234   41.7127   43.8928 N   0  0  0  0  0  0  0  0  0  0  0  0
   78.7945   42.4866   42.7237 C   0  0  0  0  0  0  0  0  0  0  0  0
   78.0693   42.1679   41.5870 C   0  0  0  0  0  0  0  0  0  0  0  0
   77.1586   41.0512   41.3662 C   0  0  0  0  0  0  0  0  0  0  0  0
   76.9549   40.1797   42.1978 O   0  0  0  0  0  0  0  0  0  0  0  0
   76.6517   41.2044   40.0908 N   0  0  0  0  0  0  0  0  0  0  0  0
   77.1903   42.3175   39.4769 C   0  0  0  0  0  0  0  0  0  0  0  0
   76.9961   42.7330   38.3419 O   0  0  0  0  0  0  0  0  0  0  0  0
   78.1055   42.9172   40.4498 C   0  0  0  0  0  0  0  0  0  0  0  0
   78.9251   44.0218   40.3362 C   0  0  0  0  0  0  0  0  0  0  0  0
   79.7157   44.3309   41.4373 C   0  0  0  0  0  0  0  0  0  0  0  0
   79.6519   43.5778   42.6120 C   0  0  0  0  0  0  0  0  0  0  0  0
   75.6416   40.3665   39.4404 C   0  0  2  0  0  0  0  0  0  0  0  0
   74.2692   40.9553   39.7213 C   0  0  0  0  0  0  0  0  0  0  0  0
   74.1031   42.1369   39.9747 O   0  0  0  0  0  0  0  0  0  0  0  0
   73.2041   40.0971   39.5918 N   0  0  0  0  0  0  0  0  0  0  0  0
   73.2251   38.7570   39.2867 C   0  0  0  0  0  0  0  0  0  0  0  0
   72.1974   38.1115   39.1618 O   0  0  0  0  0  0  0  0  0  0  0  0
   74.5885   38.1459   39.0645 C   0  0  0  0  0  0  0  0  0  0  0  0
   75.6623   38.8941   39.8364 C   0  0  0  0  0  0  0  0  0  0  0  0
   78.9718   42.1321   44.7878 H   0  0  0  0  0  0  0  0  0  0  0  0
   78.0815   40.9184   43.9050 H   0  0  0  0  0  0  0  0  0  0  0  0
   78.9497   44.6127   39.4282 H   0  0  0  0  0  0  0  0  0  0  0  0
   80.3868   45.1813   41.3889 H   0  0  0  0  0  0  0  0  0  0  0  0
   80.2804   43.8533   43.4534 H   0  0  0  0  0  0  0  0  0  0  0  0
   75.7949   40.4611   38.3641 H   0  0  0  0  0  0  0  0  0  0  0  0
   72.2891   40.5065   39.7344 H   0  0  0  0  0  0  0  0  0  0  0  0
   74.5605   37.1015   39.3913 H   0  0  0  0  0  0  0  0  0  0  0  0
   74.7925   38.1586   37.9894 H   0  0  0  0  0  0  0  0  0  0  0  0
   75.4658   38.7726   40.9055 H   0  0  0  0  0  0  0  0  0  0  0  0
   76.6469   38.4575   39.6402 H   0  0  0  0  0  0  0  0  0  0  0  0
  1  2  1  0  0  0  0
  1 21  1  0  0  0  0
  1 22  1  0  0  0  0
  2  3  1  0  0  0  0
  2 12  2  0  0  0  0
  3  9  2  0  0  0  0
  3  4  1  0  0  0  0
  4  5  2  0  0  0  0
  4  6  1  0  0  0  0
  6  7  1  0  0  0  0
 13  6  1  0  0  0  0
  7  8  2  0  0  0  0
  7  9  1  0  0  0  0
  9 10  1  0  0  0  0
 10 23  1  0  0  0  0
 10 11  2  0  0  0  0
 11 12  1  0  0  0  0
 11 24  1  0  0  0  0
 12 25  1  0  0  0  0
 13 26  1  0  0  0  0
 13 14  1  0  0  0  0
 13 20  1  0  0  0  0
 14 15  2  0  0  0  0
 14 16  1  0  0  0  0
 16 27  1  0  0  0  0
 16 17  1  0  0  0  0
 17 18  2  0  0  0  0
 17 19  1  0  0  0  0
 19 28  1  0  0  0  0
 19 29  1  0  0  0  0
 19 20  1  0  0  0  0
 20 30  1  0  0  0  0
 20 31  1  0  0  0  0
M  ZZC   1 n1
M  ZZC   2 c1
M  ZZC   3 c2
M  ZZC   4 c3
M  ZZC   5 o1
M  ZZC   6 n2
M  ZZC   7 c4
M  ZZC   8 o2
M  ZZC   9 c5
M  ZZC  10 c6
M  ZZC  11 c7
M  ZZC  12 c8
M  ZZC  13 c9
M  ZZC  14 c10
M  ZZC  15 o3
M  ZZC  16 n3
M  ZZC  17 c11
M  ZZC  18 o4
M  ZZC  19 c12
M  ZZC  20 c13
M  ZZC  21 h11
M  ZZC  22 h12
M  ZZC  23 h61
M  ZZC  24 h71
M  ZZC  25 h81
M  ZZC  26 h91
M  ZZC  27 h31
M  ZZC  28 h121
M  ZZC  29 h122
M  ZZC  30 h131
M  ZZC  31 h132
M  ZZM   1 40
M  ZZI   1 224
M  ZZM   2 37
M  ZZI   2 124
M  ZZM   3 37
M  ZZI   3 124
M  ZZM   4 3
M  ZZI   4 121
M  ZZM   5 7
M  ZZI   5 81
M  ZZM   6 10
M  ZZI   6 192
M  ZZM   7 3
M  ZZI   7 121
M  ZZM   8 7
M  ZZI   8 81
M  ZZM   9 37
M  ZZI   9 124
M  ZZM  10 37
M  ZZI  10 125
M  ZZM  11 37
M  ZZI  11 125
M  ZZM  12 37
M  ZZI  12 125
M  ZZM  13 1
M  ZZI  13 113
M  ZZM  14 3
M  ZZI  14 121
M  ZZM  15 7
M  ZZI  15 81
M  ZZM  16 10
M  ZZI  16 191
M  ZZM  17 3
M  ZZI  17 121
M  ZZM  18 7
M  ZZI  18 81
M  ZZM  19 1
M  ZZI  19 112
M  ZZM  20 1
M  ZZI  20 112
M  ZZM  21 28
M  ZZI  21 11
M  ZZM  22 28
M  ZZI  22 11
M  ZZM  23 5
M  ZZI  23 1
M  ZZM  24 5
M  ZZI  24 1
M  ZZM  25 5
M  ZZI  25 1
M  ZZM  26 5
M  ZZI  26 1
M  ZZM  27 28
M  ZZI  27 11
M  ZZM  28 5
M  ZZI  28 1
M  ZZM  29 5
M  ZZI  29 1
M  ZZM  30 5
M  ZZI  30 1
M  ZZM  31 5
M  ZZI  31 1
M  END
> <IX>
1

> <NAME>
Cereblon_5E80_4.pdb

> <Score>
-21.642739

> <Natom>
31

> <Nflex>
1

> <Hbond>
-4.913181

> <Hphob>
-3.607363

> <VwInt>
-23.964899

> <Dsolv>
15.182162

> <SolEl>
6.027484

> <Eintl>
2.007801

> <RecConf>
ND

> <projPath>
Cereblon_maps/

> <NAME_>
Cereblon_5E80_4.pdb

$$$$
