Cereblon_6VS3_17.pdb
  MOLSOFT 04032206293D

 29 31  0  0  1  0  0  0  0  0999 V2000
   79.8225   43.6067   42.5466 C   0  0  0  0  0  0  0  0  0  0  0  0
   79.0040   42.4907   42.6726 C   0  0  0  0  0  0  0  0  0  0  0  0
   78.1862   42.1953   41.5963 C   0  0  0  0  0  0  0  0  0  0  0  0
   77.2679   41.0776   41.4110 C   0  0  0  0  0  0  0  0  0  0  0  0
   77.0868   40.2179   42.2595 O   0  0  0  0  0  0  0  0  0  0  0  0
   76.7280   41.2197   40.1459 N   0  0  0  0  0  0  0  0  0  0  0  0
   77.2238   42.3471   39.5232 C   0  0  0  0  0  0  0  0  0  0  0  0
   76.9873   42.7658   38.3974 O   0  0  0  0  0  0  0  0  0  0  0  0
   78.1591   42.9582   40.4678 C   0  0  0  0  0  0  0  0  0  0  0  0
   78.9574   44.0749   40.3262 C   0  0  0  0  0  0  0  0  0  0  0  0
   79.7989   44.3850   41.3887 C   0  0  0  0  0  0  0  0  0  0  0  0
   75.7187   40.3658   39.5135 C   0  0  2  0  0  0  0  0  0  0  0  0
   74.3387   40.9341   39.8039 C   0  0  0  0  0  0  0  0  0  0  0  0
   74.1521   42.1207   40.0166 O   0  0  0  0  0  0  0  0  0  0  0  0
   73.2886   40.0518   39.7302 N   0  0  0  0  0  0  0  0  0  0  0  0
   73.3261   38.7072   39.4534 C   0  0  0  0  0  0  0  0  0  0  0  0
   72.3099   38.0349   39.3906 O   0  0  0  0  0  0  0  0  0  0  0  0
   74.6909   38.1255   39.1775 C   0  0  0  0  0  0  0  0  0  0  0  0
   75.7733   38.8951   39.9142 C   0  0  0  0  0  0  0  0  0  0  0  0
   80.4895   43.8754   43.3608 H   0  0  0  0  0  0  0  0  0  0  0  0
   79.0151   41.8755   43.5681 H   0  0  0  0  0  0  0  0  0  0  0  0
   78.9261   44.6768   39.4258 H   0  0  0  0  0  0  0  0  0  0  0  0
   80.4466   45.2513   41.3195 H   0  0  0  0  0  0  0  0  0  0  0  0
   75.8568   40.4542   38.4339 H   0  0  0  0  0  0  0  0  0  0  0  0
   72.3703   40.4457   39.8933 H   0  0  0  0  0  0  0  0  0  0  0  0
   74.6969   37.0799   39.5015 H   0  0  0  0  0  0  0  0  0  0  0  0
   74.8524   38.1467   38.0954 H   0  0  0  0  0  0  0  0  0  0  0  0
   76.7588   38.4737   39.6909 H   0  0  0  0  0  0  0  0  0  0  0  0
   75.6109   38.7752   40.9890 H   0  0  0  0  0  0  0  0  0  0  0  0
  1 20  1  0  0  0  0
  1  2  1  0  0  0  0
  1 11  2  0  0  0  0
  2 21  1  0  0  0  0
  2  3  2  0  0  0  0
  3  4  1  0  0  0  0
  3  9  1  0  0  0  0
  4  5  2  0  0  0  0
  4  6  1  0  0  0  0
  6  7  1  0  0  0  0
 12  6  1  0  0  0  0
  7  8  2  0  0  0  0
  7  9  1  0  0  0  0
  9 10  2  0  0  0  0
 10 22  1  0  0  0  0
 10 11  1  0  0  0  0
 11 23  1  0  0  0  0
 12 24  1  0  0  0  0
 12 13  1  0  0  0  0
 12 19  1  0  0  0  0
 13 14  2  0  0  0  0
 13 15  1  0  0  0  0
 15 25  1  0  0  0  0
 15 16  1  0  0  0  0
 16 17  2  0  0  0  0
 16 18  1  0  0  0  0
 18 26  1  0  0  0  0
 18 27  1  0  0  0  0
 18 19  1  0  0  0  0
 19 28  1  0  0  0  0
 19 29  1  0  0  0  0
M  ZZC   1 c1
M  ZZC   2 c2
M  ZZC   3 c3
M  ZZC   4 c4
M  ZZC   5 o1
M  ZZC   6 n1
M  ZZC   7 c5
M  ZZC   8 o2
M  ZZC   9 c6
M  ZZC  10 c7
M  ZZC  11 c8
M  ZZC  12 c9
M  ZZC  13 c10
M  ZZC  14 o3
M  ZZC  15 n2
M  ZZC  16 c11
M  ZZC  17 o4
M  ZZC  18 c12
M  ZZC  19 c13
M  ZZC  20 h11
M  ZZC  21 h21
M  ZZC  22 h71
M  ZZC  23 h81
M  ZZC  24 h91
M  ZZC  25 h01
M  ZZC  26 h121
M  ZZC  27 h122
M  ZZC  28 h131
M  ZZC  29 h132
M  ZZM   1 37
M  ZZI   1 125
M  ZZM   2 37
M  ZZI   2 125
M  ZZM   3 37
M  ZZI   3 124
M  ZZM   4 3
M  ZZI   4 121
M  ZZM   5 7
M  ZZI   5 81
M  ZZM   6 10
M  ZZI   6 192
M  ZZM   7 3
M  ZZI   7 121
M  ZZM   8 7
M  ZZI   8 81
M  ZZM   9 37
M  ZZI   9 124
M  ZZM  10 37
M  ZZI  10 125
M  ZZM  11 37
M  ZZI  11 125
M  ZZM  12 1
M  ZZI  12 113
M  ZZM  13 3
M  ZZI  13 121
M  ZZM  14 7
M  ZZI  14 81
M  ZZM  15 10
M  ZZI  15 191
M  ZZM  16 3
M  ZZI  16 121
M  ZZM  17 7
M  ZZI  17 81
M  ZZM  18 1
M  ZZI  18 112
M  ZZM  19 1
M  ZZI  19 112
M  ZZM  20 5
M  ZZI  20 1
M  ZZM  21 5
M  ZZI  21 1
M  ZZM  22 5
M  ZZI  22 1
M  ZZM  23 5
M  ZZI  23 1
M  ZZM  24 5
M  ZZI  24 1
M  ZZM  25 28
M  ZZI  25 11
M  ZZM  26 5
M  ZZI  26 1
M  ZZM  27 5
M  ZZI  27 1
M  ZZM  28 5
M  ZZI  28 1
M  ZZM  29 5
M  ZZI  29 1
M  END
> <IX>
1

> <NAME>
Cereblon_6VS3_17.pdb

> <Score>
-19.370906

> <Natom>
29

> <Nflex>
1

> <Hbond>
-3.361991

> <Hphob>
-3.548498

> <VwInt>
-22.70585

> <Dsolv>
12.07751

> <SolEl>
5.57391

> <Eintl>
1.468935

> <RecConf>
ND

> <projPath>
Cereblon_maps/

> <NAME_>
Cereblon_6VS3_17.pdb

$$$$
