Cereblon_1HWK_28.pdb
  MOLSOFT 04032206193D

 30 32  0  0  1  0  0  0  0  0999 V2000
   75.6865   37.9156   39.7478 C   0  0  0  0  0  0  0  0  0  0  0  0
   74.9919   39.0149   39.2717 C   0  0  0  0  0  0  0  0  0  0  0  0
   75.3056   40.2668   39.7200 C   0  0  0  0  0  0  0  0  0  0  0  0
   74.4194   41.2263   39.0591 C   0  0  0  0  0  0  0  0  0  0  0  0
   74.4243   42.4214   39.3121 O   0  0  0  0  0  0  0  0  0  0  0  0
   73.6440   40.5053   38.1630 N   0  0  0  0  0  0  0  0  0  0  0  0
   72.6103   41.0290   37.2545 C   0  0  1  0  0  0  0  0  0  0  0  0
   71.2877   41.2514   37.9874 C   0  0  0  0  0  0  0  0  0  0  0  0
   70.9267   40.5745   38.9393 O   0  0  0  0  0  0  0  0  0  0  0  0
   70.4530   42.2059   37.4519 N   0  0  0  0  0  0  0  0  0  0  0  0
   70.6627   43.0316   36.3795 C   0  0  0  0  0  0  0  0  0  0  0  0
   69.8610   43.9039   36.0818 O   0  0  0  0  0  0  0  0  0  0  0  0
   71.9211   42.7660   35.5937 C   0  0  0  0  0  0  0  0  0  0  0  0
   73.0399   42.2899   36.5054 C   0  0  0  0  0  0  0  0  0  0  0  0
   73.8837   39.0766   38.2819 C   0  0  0  0  0  0  0  0  0  0  0  0
   76.3106   40.5136   40.6374 C   0  0  0  0  0  0  0  0  0  0  0  0
   77.0091   39.4163   41.1181 C   0  0  0  0  0  0  0  0  0  0  0  0
   76.6985   38.1332   40.6759 C   0  0  0  0  0  0  0  0  0  0  0  0
   75.4564   36.9112   39.4061 H   0  0  0  0  0  0  0  0  0  0  0  0
   72.4194   40.2454   36.5119 H   0  0  0  0  0  0  0  0  0  0  0  0
   69.5821   42.3563   37.9392 H   0  0  0  0  0  0  0  0  0  0  0  0
   71.6981   42.0254   34.8182 H   0  0  0  0  0  0  0  0  0  0  0  0
   72.2174   43.6949   35.1020 H   0  0  0  0  0  0  0  0  0  0  0  0
   73.9424   42.0927   35.9180 H   0  0  0  0  0  0  0  0  0  0  0  0
   73.2918   43.0934   37.2030 H   0  0  0  0  0  0  0  0  0  0  0  0
   74.1752   38.6667   37.3092 H   0  0  0  0  0  0  0  0  0  0  0  0
   72.9808   38.5843   38.6589 H   0  0  0  0  0  0  0  0  0  0  0  0
   76.5526   41.5204   40.9622 H   0  0  0  0  0  0  0  0  0  0  0  0
   77.8056   39.5616   41.8416 H   0  0  0  0  0  0  0  0  0  0  0  0
   77.2599   37.2878   41.0610 H   0  0  0  0  0  0  0  0  0  0  0  0
  1 19  1  0  0  0  0
  1 18  2  0  0  0  0
  1  2  1  0  0  0  0
  2  3  2  0  0  0  0
  2 15  1  0  0  0  0
  3 16  1  0  0  0  0
  3  4  1  0  0  0  0
  4  6  1  0  0  0  0
  4  5  2  0  0  0  0
  6 15  1  0  0  0  0
  7  6  1  0  0  0  0
  7 20  1  0  0  0  0
  7  8  1  0  0  0  0
  7 14  1  0  0  0  0
  8  9  2  0  0  0  0
  8 10  1  0  0  0  0
 10 21  1  0  0  0  0
 10 11  1  0  0  0  0
 11 12  2  0  0  0  0
 11 13  1  0  0  0  0
 13 22  1  0  0  0  0
 13 23  1  0  0  0  0
 13 14  1  0  0  0  0
 14 24  1  0  0  0  0
 14 25  1  0  0  0  0
 15 26  1  0  0  0  0
 15 27  1  0  0  0  0
 16 17  2  0  0  0  0
 16 28  1  0  0  0  0
 17 18  1  0  0  0  0
 17 29  1  0  0  0  0
 18 30  1  0  0  0  0
M  ZZC   1 c1
M  ZZC   2 c2
M  ZZC   3 c3
M  ZZC   4 c4
M  ZZC   5 o1
M  ZZC   6 n1
M  ZZC   7 c5
M  ZZC   8 c6
M  ZZC   9 o2
M  ZZC  10 n2
M  ZZC  11 c7
M  ZZC  12 o3
M  ZZC  13 c8
M  ZZC  14 c9
M  ZZC  15 c10
M  ZZC  16 c11
M  ZZC  17 c12
M  ZZC  18 c13
M  ZZC  19 h11
M  ZZC  20 h51
M  ZZC  21 h21
M  ZZC  22 h81
M  ZZC  23 h82
M  ZZC  24 h91
M  ZZC  25 h92
M  ZZC  26 h101
M  ZZC  27 h102
M  ZZC  28 h111
M  ZZC  29 h121
M  ZZC  30 h131
M  ZZM   1 37
M  ZZI   1 125
M  ZZM   2 37
M  ZZI   2 124
M  ZZM   3 37
M  ZZI   3 124
M  ZZM   4 3
M  ZZI   4 121
M  ZZM   5 7
M  ZZI   5 81
M  ZZM   6 10
M  ZZI   6 192
M  ZZM   7 1
M  ZZI   7 113
M  ZZM   8 3
M  ZZI   8 121
M  ZZM   9 7
M  ZZI   9 81
M  ZZM  10 10
M  ZZI  10 191
M  ZZM  11 3
M  ZZI  11 121
M  ZZM  12 7
M  ZZI  12 81
M  ZZM  13 1
M  ZZI  13 112
M  ZZM  14 1
M  ZZI  14 112
M  ZZM  15 1
M  ZZI  15 112
M  ZZM  16 37
M  ZZI  16 125
M  ZZM  17 37
M  ZZI  17 125
M  ZZM  18 37
M  ZZI  18 125
M  ZZM  19 5
M  ZZI  19 1
M  ZZM  20 5
M  ZZI  20 1
M  ZZM  21 28
M  ZZI  21 11
M  ZZM  22 5
M  ZZI  22 1
M  ZZM  23 5
M  ZZI  23 1
M  ZZM  24 5
M  ZZI  24 1
M  ZZM  25 5
M  ZZI  25 1
M  ZZM  26 5
M  ZZI  26 1
M  ZZM  27 5
M  ZZI  27 1
M  ZZM  28 5
M  ZZI  28 1
M  ZZM  29 5
M  ZZI  29 1
M  ZZM  30 5
M  ZZI  30 1
M  END
> <IX>
1

> <NAME>
Cereblon_1HWK_28.pdb

> <Score>
-20.854954

> <Natom>
30

> <Nflex>
1

> <Hbond>
-4.629114

> <Hphob>
-3.610448

> <VwInt>
-21.910208

> <Dsolv>
13.278415

> <SolEl>
5.45126

> <Eintl>
1.715451

> <RecConf>
ND

> <projPath>
Cereblon_maps/

> <NAME_>
Cereblon_1HWK_28.pdb

$$$$
