Cereblon_2EUF_4.pdb
  MOLSOFT 04032206193D

 31 33  0  0  1  0  0  0  0  0999 V2000
   78.8272   41.6805   43.7935 N   0  0  0  0  0  0  0  0  0  0  0  0
   78.9008   42.4372   42.6135 C   0  0  0  0  0  0  0  0  0  0  0  0
   78.0945   42.1659   41.5191 C   0  0  0  0  0  0  0  0  0  0  0  0
   77.1596   41.0635   41.3237 C   0  0  0  0  0  0  0  0  0  0  0  0
   76.9840   40.1850   42.1545 O   0  0  0  0  0  0  0  0  0  0  0  0
   76.6116   41.2332   40.0676 N   0  0  0  0  0  0  0  0  0  0  0  0
   77.1475   42.3396   39.4383 C   0  0  0  0  0  0  0  0  0  0  0  0
   76.9436   42.7485   38.3026 O   0  0  0  0  0  0  0  0  0  0  0  0
   78.0930   42.9310   40.3912 C   0  0  0  0  0  0  0  0  0  0  0  0
   78.9106   44.0360   40.2643 C   0  0  0  0  0  0  0  0  0  0  0  0
   79.7386   44.3305   41.3407 C   0  0  0  0  0  0  0  0  0  0  0  0
   79.7226   43.5556   42.5028 C   0  0  0  0  0  0  0  0  0  0  0  0
   75.5999   40.3882   39.4299 C   0  0  2  0  0  0  0  0  0  0  0  0
   74.2295   40.9758   39.7161 C   0  0  0  0  0  0  0  0  0  0  0  0
   74.0627   42.1550   39.9792 O   0  0  0  0  0  0  0  0  0  0  0  0
   73.1645   40.1195   39.5778 N   0  0  0  0  0  0  0  0  0  0  0  0
   73.1850   38.7803   39.2681 C   0  0  0  0  0  0  0  0  0  0  0  0
   72.1567   38.1389   39.1283 O   0  0  0  0  0  0  0  0  0  0  0  0
   74.5491   38.1627   39.0628 C   0  0  0  0  0  0  0  0  0  0  0  0
   75.6232   38.9171   39.8301 C   0  0  0  0  0  0  0  0  0  0  0  0
   79.5968   41.7104   44.4592 H   0  0  0  0  0  0  0  0  0  0  0  0
   78.2238   40.8565   43.8015 H   0  0  0  0  0  0  0  0  0  0  0  0
   78.9024   44.6406   39.3651 H   0  0  0  0  0  0  0  0  0  0  0  0
   80.4005   45.1876   41.2849 H   0  0  0  0  0  0  0  0  0  0  0  0
   80.3688   43.8301   43.3311 H   0  0  0  0  0  0  0  0  0  0  0  0
   75.7433   40.4753   38.3517 H   0  0  0  0  0  0  0  0  0  0  0  0
   72.2488   40.5292   39.7163 H   0  0  0  0  0  0  0  0  0  0  0  0
   74.5152   37.1228   39.4029 H   0  0  0  0  0  0  0  0  0  0  0  0
   74.7590   38.1599   37.9889 H   0  0  0  0  0  0  0  0  0  0  0  0
   75.4296   38.7973   40.9000 H   0  0  0  0  0  0  0  0  0  0  0  0
   76.6087   38.4829   39.6329 H   0  0  0  0  0  0  0  0  0  0  0  0
  1  2  1  0  0  0  0
  1 21  1  0  0  0  0
  1 22  1  0  0  0  0
  2  3  1  0  0  0  0
  2 12  2  0  0  0  0
  3  9  2  0  0  0  0
  3  4  1  0  0  0  0
  4  5  2  0  0  0  0
  4  6  1  0  0  0  0
  6  7  1  0  0  0  0
 13  6  1  0  0  0  0
  7  8  2  0  0  0  0
  7  9  1  0  0  0  0
  9 10  1  0  0  0  0
 10 23  1  0  0  0  0
 10 11  2  0  0  0  0
 11 12  1  0  0  0  0
 11 24  1  0  0  0  0
 12 25  1  0  0  0  0
 13 26  1  0  0  0  0
 13 14  1  0  0  0  0
 13 20  1  0  0  0  0
 14 15  2  0  0  0  0
 14 16  1  0  0  0  0
 16 27  1  0  0  0  0
 16 17  1  0  0  0  0
 17 18  2  0  0  0  0
 17 19  1  0  0  0  0
 19 28  1  0  0  0  0
 19 29  1  0  0  0  0
 19 20  1  0  0  0  0
 20 30  1  0  0  0  0
 20 31  1  0  0  0  0
M  ZZC   1 n1
M  ZZC   2 c1
M  ZZC   3 c2
M  ZZC   4 c3
M  ZZC   5 o1
M  ZZC   6 n2
M  ZZC   7 c4
M  ZZC   8 o2
M  ZZC   9 c5
M  ZZC  10 c6
M  ZZC  11 c7
M  ZZC  12 c8
M  ZZC  13 c9
M  ZZC  14 c10
M  ZZC  15 o3
M  ZZC  16 n3
M  ZZC  17 c11
M  ZZC  18 o4
M  ZZC  19 c12
M  ZZC  20 c13
M  ZZC  21 h11
M  ZZC  22 h12
M  ZZC  23 h61
M  ZZC  24 h71
M  ZZC  25 h81
M  ZZC  26 h91
M  ZZC  27 h31
M  ZZC  28 h121
M  ZZC  29 h122
M  ZZC  30 h131
M  ZZC  31 h132
M  ZZM   1 40
M  ZZI   1 224
M  ZZM   2 37
M  ZZI   2 124
M  ZZM   3 37
M  ZZI   3 124
M  ZZM   4 3
M  ZZI   4 121
M  ZZM   5 7
M  ZZI   5 81
M  ZZM   6 10
M  ZZI   6 192
M  ZZM   7 3
M  ZZI   7 121
M  ZZM   8 7
M  ZZI   8 81
M  ZZM   9 37
M  ZZI   9 124
M  ZZM  10 37
M  ZZI  10 125
M  ZZM  11 37
M  ZZI  11 125
M  ZZM  12 37
M  ZZI  12 125
M  ZZM  13 1
M  ZZI  13 113
M  ZZM  14 3
M  ZZI  14 121
M  ZZM  15 7
M  ZZI  15 81
M  ZZM  16 10
M  ZZI  16 191
M  ZZM  17 3
M  ZZI  17 121
M  ZZM  18 7
M  ZZI  18 81
M  ZZM  19 1
M  ZZI  19 112
M  ZZM  20 1
M  ZZI  20 112
M  ZZM  21 28
M  ZZI  21 11
M  ZZM  22 28
M  ZZI  22 11
M  ZZM  23 5
M  ZZI  23 1
M  ZZM  24 5
M  ZZI  24 1
M  ZZM  25 5
M  ZZI  25 1
M  ZZM  26 5
M  ZZI  26 1
M  ZZM  27 28
M  ZZI  27 11
M  ZZM  28 5
M  ZZI  28 1
M  ZZM  29 5
M  ZZI  29 1
M  ZZM  30 5
M  ZZI  30 1
M  ZZM  31 5
M  ZZI  31 1
M  END
> <IX>
1

> <NAME>
Cereblon_2EUF_4.pdb

> <Score>
-18.671693

> <Natom>
31

> <Nflex>
1

> <Hbond>
-3.709243

> <Hphob>
-3.572893

> <VwInt>
-24.38942

> <Dsolv>
15.342209

> <SolEl>
6.372066

> <Eintl>
1.972884

> <RecConf>
ND

> <projPath>
Cereblon_maps/

> <NAME_>
Cereblon_2EUF_4.pdb

$$$$
