Cereblon_3HLL_18.pdb
  MOLSOFT 04032206203D

 31 33  0  0  1  0  0  0  0  0999 V2000
   78.8137   41.6814   43.8074 N   0  0  0  0  0  0  0  0  0  0  0  0
   78.8969   42.4334   42.6256 C   0  0  0  0  0  0  0  0  0  0  0  0
   78.0947   42.1629   41.5300 C   0  0  0  0  0  0  0  0  0  0  0  0
   77.1732   41.0521   41.3266 C   0  0  0  0  0  0  0  0  0  0  0  0
   76.9884   40.1713   42.1533 O   0  0  0  0  0  0  0  0  0  0  0  0
   76.6380   41.2145   40.0638 N   0  0  0  0  0  0  0  0  0  0  0  0
   77.1612   42.3326   39.4465 C   0  0  0  0  0  0  0  0  0  0  0  0
   76.9497   42.7510   38.3156 O   0  0  0  0  0  0  0  0  0  0  0  0
   78.0932   42.9300   40.4049 C   0  0  0  0  0  0  0  0  0  0  0  0
   78.9066   44.0376   40.2815 C   0  0  0  0  0  0  0  0  0  0  0  0
   79.7259   44.3372   41.3651 C   0  0  0  0  0  0  0  0  0  0  0  0
   79.7115   43.5569   42.5229 C   0  0  0  0  0  0  0  0  0  0  0  0
   75.6191   40.3770   39.4274 C   0  0  2  0  0  0  0  0  0  0  0  0
   74.2479   40.9561   39.7306 C   0  0  0  0  0  0  0  0  0  0  0  0
   74.0786   42.1355   39.9916 O   0  0  0  0  0  0  0  0  0  0  0  0
   73.1865   40.0926   39.6100 N   0  0  0  0  0  0  0  0  0  0  0  0
   73.2111   38.7554   39.2950 C   0  0  0  0  0  0  0  0  0  0  0  0
   72.1857   38.1047   39.1775 O   0  0  0  0  0  0  0  0  0  0  0  0
   74.5751   38.1538   39.0519 C   0  0  0  0  0  0  0  0  0  0  0  0
   75.6506   38.9039   39.8180 C   0  0  0  0  0  0  0  0  0  0  0  0
   79.5314   41.7808   44.5223 H   0  0  0  0  0  0  0  0  0  0  0  0
   78.2765   40.8127   43.7912 H   0  0  0  0  0  0  0  0  0  0  0  0
   78.9008   44.6437   39.3833 H   0  0  0  0  0  0  0  0  0  0  0  0
   80.3784   45.2018   41.3167 H   0  0  0  0  0  0  0  0  0  0  0  0
   80.3480   43.8356   43.3572 H   0  0  0  0  0  0  0  0  0  0  0  0
   75.7557   40.4767   38.3493 H   0  0  0  0  0  0  0  0  0  0  0  0
   72.2713   40.4958   39.7679 H   0  0  0  0  0  0  0  0  0  0  0  0
   74.5568   37.1071   39.3716 H   0  0  0  0  0  0  0  0  0  0  0  0
   74.7686   38.1755   37.9750 H   0  0  0  0  0  0  0  0  0  0  0  0
   76.6350   38.4705   39.6144 H   0  0  0  0  0  0  0  0  0  0  0  0
   75.4631   38.7773   40.8882 H   0  0  0  0  0  0  0  0  0  0  0  0
  1  2  1  0  0  0  0
  1 21  1  0  0  0  0
  1 22  1  0  0  0  0
  2  3  1  0  0  0  0
  2 12  2  0  0  0  0
  3  9  2  0  0  0  0
  3  4  1  0  0  0  0
  4  5  2  0  0  0  0
  4  6  1  0  0  0  0
  6  7  1  0  0  0  0
 13  6  1  0  0  0  0
  7  8  2  0  0  0  0
  7  9  1  0  0  0  0
  9 10  1  0  0  0  0
 10 23  1  0  0  0  0
 10 11  2  0  0  0  0
 11 12  1  0  0  0  0
 11 24  1  0  0  0  0
 12 25  1  0  0  0  0
 13 26  1  0  0  0  0
 13 14  1  0  0  0  0
 13 20  1  0  0  0  0
 14 15  2  0  0  0  0
 14 16  1  0  0  0  0
 16 27  1  0  0  0  0
 16 17  1  0  0  0  0
 17 18  2  0  0  0  0
 17 19  1  0  0  0  0
 19 28  1  0  0  0  0
 19 29  1  0  0  0  0
 19 20  1  0  0  0  0
 20 30  1  0  0  0  0
 20 31  1  0  0  0  0
M  ZZC   1 n1
M  ZZC   2 c1
M  ZZC   3 c2
M  ZZC   4 c3
M  ZZC   5 o1
M  ZZC   6 n2
M  ZZC   7 c4
M  ZZC   8 o2
M  ZZC   9 c5
M  ZZC  10 c6
M  ZZC  11 c7
M  ZZC  12 c8
M  ZZC  13 c9
M  ZZC  14 c10
M  ZZC  15 o3
M  ZZC  16 n3
M  ZZC  17 c11
M  ZZC  18 o4
M  ZZC  19 c12
M  ZZC  20 c13
M  ZZC  21 h11
M  ZZC  22 h12
M  ZZC  23 h61
M  ZZC  24 h71
M  ZZC  25 h81
M  ZZC  26 h91
M  ZZC  27 h31
M  ZZC  28 h121
M  ZZC  29 h122
M  ZZC  30 h131
M  ZZC  31 h132
M  ZZM   1 40
M  ZZI   1 224
M  ZZM   2 37
M  ZZI   2 124
M  ZZM   3 37
M  ZZI   3 124
M  ZZM   4 3
M  ZZI   4 121
M  ZZM   5 7
M  ZZI   5 81
M  ZZM   6 10
M  ZZI   6 192
M  ZZM   7 3
M  ZZI   7 121
M  ZZM   8 7
M  ZZI   8 81
M  ZZM   9 37
M  ZZI   9 124
M  ZZM  10 37
M  ZZI  10 125
M  ZZM  11 37
M  ZZI  11 125
M  ZZM  12 37
M  ZZI  12 125
M  ZZM  13 1
M  ZZI  13 113
M  ZZM  14 3
M  ZZI  14 121
M  ZZM  15 7
M  ZZI  15 81
M  ZZM  16 10
M  ZZI  16 191
M  ZZM  17 3
M  ZZI  17 121
M  ZZM  18 7
M  ZZI  18 81
M  ZZM  19 1
M  ZZI  19 112
M  ZZM  20 1
M  ZZI  20 112
M  ZZM  21 28
M  ZZI  21 11
M  ZZM  22 28
M  ZZI  22 11
M  ZZM  23 5
M  ZZI  23 1
M  ZZM  24 5
M  ZZI  24 1
M  ZZM  25 5
M  ZZI  25 1
M  ZZM  26 5
M  ZZI  26 1
M  ZZM  27 28
M  ZZI  27 11
M  ZZM  28 5
M  ZZI  28 1
M  ZZM  29 5
M  ZZI  29 1
M  ZZM  30 5
M  ZZI  30 1
M  ZZM  31 5
M  ZZI  31 1
M  END
> <IX>
1

> <NAME>
Cereblon_3HLL_18.pdb

> <Score>
-18.846077

> <Natom>
31

> <Nflex>
1

> <Hbond>
-3.692977

> <Hphob>
-3.544064

> <VwInt>
-24.221411

> <Dsolv>
15.199948

> <SolEl>
6.186569

> <Eintl>
1.683321

> <RecConf>
ND

> <projPath>
Cereblon_maps/

> <NAME_>
Cereblon_3HLL_18.pdb

$$$$
