Cereblon_5TOB_1.pdb
  MOLSOFT 04032206263D

 31 33  0  0  1  0  0  0  0  0999 V2000
   78.7259   41.7160   43.8966 N   0  0  0  0  0  0  0  0  0  0  0  0
   78.7879   42.4992   42.7326 C   0  0  0  0  0  0  0  0  0  0  0  0
   78.0732   42.1758   41.5912 C   0  0  0  0  0  0  0  0  0  0  0  0
   77.1610   41.0617   41.3700 C   0  0  0  0  0  0  0  0  0  0  0  0
   76.9381   40.2034   42.2104 O   0  0  0  0  0  0  0  0  0  0  0  0
   76.6719   41.2021   40.0868 N   0  0  0  0  0  0  0  0  0  0  0  0
   77.2037   42.3195   39.4766 C   0  0  0  0  0  0  0  0  0  0  0  0
   77.0017   42.7409   38.3451 O   0  0  0  0  0  0  0  0  0  0  0  0
   78.1142   42.9224   40.4526 C   0  0  0  0  0  0  0  0  0  0  0  0
   78.9347   44.0260   40.3405 C   0  0  0  0  0  0  0  0  0  0  0  0
   79.7239   44.3335   41.4428 C   0  0  0  0  0  0  0  0  0  0  0  0
   79.6561   43.5811   42.6174 C   0  0  0  0  0  0  0  0  0  0  0  0
   75.6546   40.3690   39.4421 C   0  0  2  0  0  0  0  0  0  0  0  0
   74.2827   40.9524   39.7376 C   0  0  0  0  0  0  0  0  0  0  0  0
   74.1148   42.1348   39.9862 O   0  0  0  0  0  0  0  0  0  0  0  0
   73.2199   40.0888   39.6283 N   0  0  0  0  0  0  0  0  0  0  0  0
   73.2420   38.7490   39.3252 C   0  0  0  0  0  0  0  0  0  0  0  0
   72.2163   38.0956   39.2264 O   0  0  0  0  0  0  0  0  0  0  0  0
   74.6033   38.1484   39.0684 C   0  0  0  0  0  0  0  0  0  0  0  0
   75.6832   38.8948   39.8321 C   0  0  0  0  0  0  0  0  0  0  0  0
   78.9813   42.1388   44.7877 H   0  0  0  0  0  0  0  0  0  0  0  0
   78.0303   40.9688   43.9251 H   0  0  0  0  0  0  0  0  0  0  0  0
   78.9654   44.6149   39.4315 H   0  0  0  0  0  0  0  0  0  0  0  0
   80.3989   45.1808   41.3947 H   0  0  0  0  0  0  0  0  0  0  0  0
   80.2868   43.8536   43.4581 H   0  0  0  0  0  0  0  0  0  0  0  0
   75.7975   40.4679   38.3647 H   0  0  0  0  0  0  0  0  0  0  0  0
   72.3055   40.4934   39.7871 H   0  0  0  0  0  0  0  0  0  0  0  0
   74.5872   37.1002   39.3834 H   0  0  0  0  0  0  0  0  0  0  0  0
   74.7882   38.1755   37.9902 H   0  0  0  0  0  0  0  0  0  0  0  0
   75.4981   38.7678   40.9026 H   0  0  0  0  0  0  0  0  0  0  0  0
   76.6668   38.4609   39.6256 H   0  0  0  0  0  0  0  0  0  0  0  0
  1  2  1  0  0  0  0
  1 21  1  0  0  0  0
  1 22  1  0  0  0  0
  2  3  1  0  0  0  0
  2 12  2  0  0  0  0
  3  9  2  0  0  0  0
  3  4  1  0  0  0  0
  4  5  2  0  0  0  0
  4  6  1  0  0  0  0
  6  7  1  0  0  0  0
 13  6  1  0  0  0  0
  7  8  2  0  0  0  0
  7  9  1  0  0  0  0
  9 10  1  0  0  0  0
 10 23  1  0  0  0  0
 10 11  2  0  0  0  0
 11 12  1  0  0  0  0
 11 24  1  0  0  0  0
 12 25  1  0  0  0  0
 13 26  1  0  0  0  0
 13 14  1  0  0  0  0
 13 20  1  0  0  0  0
 14 15  2  0  0  0  0
 14 16  1  0  0  0  0
 16 27  1  0  0  0  0
 16 17  1  0  0  0  0
 17 18  2  0  0  0  0
 17 19  1  0  0  0  0
 19 28  1  0  0  0  0
 19 29  1  0  0  0  0
 19 20  1  0  0  0  0
 20 30  1  0  0  0  0
 20 31  1  0  0  0  0
M  ZZC   1 n1
M  ZZC   2 c1
M  ZZC   3 c2
M  ZZC   4 c3
M  ZZC   5 o1
M  ZZC   6 n2
M  ZZC   7 c4
M  ZZC   8 o2
M  ZZC   9 c5
M  ZZC  10 c6
M  ZZC  11 c7
M  ZZC  12 c8
M  ZZC  13 c9
M  ZZC  14 c10
M  ZZC  15 o3
M  ZZC  16 n3
M  ZZC  17 c11
M  ZZC  18 o4
M  ZZC  19 c12
M  ZZC  20 c13
M  ZZC  21 h11
M  ZZC  22 h12
M  ZZC  23 h61
M  ZZC  24 h71
M  ZZC  25 h81
M  ZZC  26 h91
M  ZZC  27 h31
M  ZZC  28 h121
M  ZZC  29 h122
M  ZZC  30 h131
M  ZZC  31 h132
M  ZZM   1 40
M  ZZI   1 224
M  ZZM   2 37
M  ZZI   2 124
M  ZZM   3 37
M  ZZI   3 124
M  ZZM   4 3
M  ZZI   4 121
M  ZZM   5 7
M  ZZI   5 81
M  ZZM   6 10
M  ZZI   6 192
M  ZZM   7 3
M  ZZI   7 121
M  ZZM   8 7
M  ZZI   8 81
M  ZZM   9 37
M  ZZI   9 124
M  ZZM  10 37
M  ZZI  10 125
M  ZZM  11 37
M  ZZI  11 125
M  ZZM  12 37
M  ZZI  12 125
M  ZZM  13 1
M  ZZI  13 113
M  ZZM  14 3
M  ZZI  14 121
M  ZZM  15 7
M  ZZI  15 81
M  ZZM  16 10
M  ZZI  16 191
M  ZZM  17 3
M  ZZI  17 121
M  ZZM  18 7
M  ZZI  18 81
M  ZZM  19 1
M  ZZI  19 112
M  ZZM  20 1
M  ZZI  20 112
M  ZZM  21 28
M  ZZI  21 11
M  ZZM  22 28
M  ZZI  22 11
M  ZZM  23 5
M  ZZI  23 1
M  ZZM  24 5
M  ZZI  24 1
M  ZZM  25 5
M  ZZI  25 1
M  ZZM  26 5
M  ZZI  26 1
M  ZZM  27 28
M  ZZI  27 11
M  ZZM  28 5
M  ZZI  28 1
M  ZZM  29 5
M  ZZI  29 1
M  ZZM  30 5
M  ZZI  30 1
M  ZZM  31 5
M  ZZI  31 1
M  END
> <IX>
1

> <NAME>
Cereblon_5TOB_1.pdb

> <Score>
-21.651951

> <Natom>
31

> <Nflex>
1

> <Hbond>
-4.90265

> <Hphob>
-3.573597

> <VwInt>
-23.98803

> <Dsolv>
15.107075

> <SolEl>
6.287135

> <Eintl>
1.757132

> <RecConf>
ND

> <projPath>
Cereblon_maps/

> <NAME_>
Cereblon_5TOB_1.pdb

$$$$
