Cereblon_3HLL_2.pdb
  MOLSOFT 04032206213D

 33 35  0  0  1  0  0  0  0  0999 V2000
   80.2446   43.6461   43.5109 N   0  0  0  0  0  0  0  0  0  0  0  0
   79.7402   43.7415   42.2379 C   0  0  0  0  0  0  0  0  0  0  0  0
   80.0891   44.6263   41.4718 O   0  0  0  0  0  0  0  0  0  0  0  0
   78.7373   42.7191   41.8013 C   0  0  0  0  0  0  0  0  0  0  0  0
   78.1290   42.9009   40.5510 C   0  0  0  0  0  0  0  0  0  0  0  0
   77.2055   41.9485   40.1544 C   0  0  0  0  0  0  0  0  0  0  0  0
   76.3719   41.8872   38.9541 C   0  0  0  0  0  0  0  0  0  0  0  0
   76.4664   42.6526   38.0050 O   0  0  0  0  0  0  0  0  0  0  0  0
   75.5005   40.8323   39.1404 N   0  0  0  0  0  0  0  0  0  0  0  0
   75.8464   40.1094   40.2621 C   0  0  0  0  0  0  0  0  0  0  0  0
   75.3951   39.0554   40.6839 O   0  0  0  0  0  0  0  0  0  0  0  0
   76.8962   40.8731   40.9305 C   0  0  0  0  0  0  0  0  0  0  0  0
   77.4730   40.6675   42.1679 C   0  0  0  0  0  0  0  0  0  0  0  0
   78.3952   41.6106   42.6020 C   0  0  0  0  0  0  0  0  0  0  0  0
   74.2436   40.7064   38.3901 C   0  0  2  0  0  0  0  0  0  0  0  0
   73.2212   41.4884   39.1948 C   0  0  0  0  0  0  0  0  0  0  0  0
   73.5508   42.3314   40.0135 O   0  0  0  0  0  0  0  0  0  0  0  0
   71.9017   41.2396   38.9053 N   0  0  0  0  0  0  0  0  0  0  0  0
   71.3852   40.2679   38.0826 C   0  0  0  0  0  0  0  0  0  0  0  0
   70.1815   40.1605   37.9031 O   0  0  0  0  0  0  0  0  0  0  0  0
   72.3995   39.3832   37.3884 C   0  0  0  0  0  0  0  0  0  0  0  0
   73.6993   39.2960   38.1774 C   0  0  0  0  0  0  0  0  0  0  0  0
   80.8929   44.3569   43.8331 H   0  0  0  0  0  0  0  0  0  0  0  0
   79.9987   42.9371   44.1893 H   0  0  0  0  0  0  0  0  0  0  0  0
   78.3497   43.7533   39.9144 H   0  0  0  0  0  0  0  0  0  0  0  0
   77.2041   39.8177   42.7882 H   0  0  0  0  0  0  0  0  0  0  0  0
   78.8418   41.4473   43.5756 H   0  0  0  0  0  0  0  0  0  0  0  0
   74.3559   41.2340   37.4353 H   0  0  0  0  0  0  0  0  0  0  0  0
   71.2321   41.8400   39.3700 H   0  0  0  0  0  0  0  0  0  0  0  0
   71.9679   38.3836   37.2758 H   0  0  0  0  0  0  0  0  0  0  0  0
   72.5789   39.7899   36.3872 H   0  0  0  0  0  0  0  0  0  0  0  0
   74.4220   38.6709   37.6458 H   0  0  0  0  0  0  0  0  0  0  0  0
   73.4964   38.8041   39.1346 H   0  0  0  0  0  0  0  0  0  0  0  0
  1  2  1  0  0  0  0
  1 23  1  0  0  0  0
  1 24  1  0  0  0  0
  2  4  1  0  0  0  0
  2  3  2  0  0  0  0
  4  5  1  0  0  0  0
  4 14  2  0  0  0  0
  5 25  1  0  0  0  0
  5  6  2  0  0  0  0
  6 12  1  0  0  0  0
  6  7  1  0  0  0  0
  7  8  2  0  0  0  0
  7  9  1  0  0  0  0
  9 10  1  0  0  0  0
 15  9  1  0  0  0  0
 10 11  2  0  0  0  0
 10 12  1  0  0  0  0
 12 13  2  0  0  0  0
 13 14  1  0  0  0  0
 13 26  1  0  0  0  0
 14 27  1  0  0  0  0
 15 28  1  0  0  0  0
 15 16  1  0  0  0  0
 15 22  1  0  0  0  0
 16 17  2  0  0  0  0
 16 18  1  0  0  0  0
 18 29  1  0  0  0  0
 18 19  1  0  0  0  0
 19 20  2  0  0  0  0
 19 21  1  0  0  0  0
 21 30  1  0  0  0  0
 21 31  1  0  0  0  0
 21 22  1  0  0  0  0
 22 32  1  0  0  0  0
 22 33  1  0  0  0  0
M  ZZC   1 n1
M  ZZC   2 c1
M  ZZC   3 o1
M  ZZC   4 c2
M  ZZC   5 c3
M  ZZC   6 c4
M  ZZC   7 c5
M  ZZC   8 o2
M  ZZC   9 n2
M  ZZC  10 c6
M  ZZC  11 o3
M  ZZC  12 c7
M  ZZC  13 c8
M  ZZC  14 c9
M  ZZC  15 c10
M  ZZC  16 c11
M  ZZC  17 o4
M  ZZC  18 n3
M  ZZC  19 c12
M  ZZC  20 o5
M  ZZC  21 c13
M  ZZC  22 c14
M  ZZC  23 h11
M  ZZC  24 h12
M  ZZC  25 h31
M  ZZC  26 h81
M  ZZC  27 h91
M  ZZC  28 h101
M  ZZC  29 h01
M  ZZC  30 h131
M  ZZC  31 h132
M  ZZC  32 h141
M  ZZC  33 h142
M  ZZM   1 10
M  ZZI   1 212
M  ZZM   2 3
M  ZZI   2 121
M  ZZM   3 7
M  ZZI   3 81
M  ZZM   4 37
M  ZZI   4 124
M  ZZM   5 37
M  ZZI   5 125
M  ZZM   6 37
M  ZZI   6 124
M  ZZM   7 3
M  ZZI   7 121
M  ZZM   8 7
M  ZZI   8 81
M  ZZM   9 10
M  ZZI   9 192
M  ZZM  10 3
M  ZZI  10 121
M  ZZM  11 7
M  ZZI  11 81
M  ZZM  12 37
M  ZZI  12 124
M  ZZM  13 37
M  ZZI  13 125
M  ZZM  14 37
M  ZZI  14 125
M  ZZM  15 1
M  ZZI  15 113
M  ZZM  16 3
M  ZZI  16 121
M  ZZM  17 7
M  ZZI  17 81
M  ZZM  18 10
M  ZZI  18 191
M  ZZM  19 3
M  ZZI  19 121
M  ZZM  20 7
M  ZZI  20 81
M  ZZM  21 1
M  ZZI  21 112
M  ZZM  22 1
M  ZZI  22 112
M  ZZM  23 28
M  ZZI  23 11
M  ZZM  24 28
M  ZZI  24 11
M  ZZM  25 5
M  ZZI  25 1
M  ZZM  26 5
M  ZZI  26 1
M  ZZM  27 5
M  ZZI  27 1
M  ZZM  28 5
M  ZZI  28 1
M  ZZM  29 28
M  ZZI  29 11
M  ZZM  30 5
M  ZZI  30 1
M  ZZM  31 5
M  ZZI  31 1
M  ZZM  32 5
M  ZZI  32 1
M  ZZM  33 5
M  ZZI  33 1
M  END
> <IX>
1

> <NAME>
Cereblon_3HLL_2.pdb

> <Score>
-20.604925

> <Natom>
33

> <Nflex>
1

> <Hbond>
-5.814734

> <Hphob>
-2.914868

> <VwInt>
-26.862458

> <Dsolv>
20.181995

> <SolEl>
5.886732

> <Eintl>
5.500054

> <RecConf>
ND

> <projPath>
Cereblon_maps/

> <NAME_>
Cereblon_3HLL_2.pdb

$$$$
