Cereblon_5WN8_2.pdb
  MOLSOFT 04032206283D

 30 32  0  0  1  0  0  0  0  0999 V2000
   77.8340   41.3687   42.1482 C   0  0  0  0  0  0  0  0  0  0  0  0
   77.1481   41.3708   40.9435 C   0  0  0  0  0  0  0  0  0  0  0  0
   77.4065   42.3315   40.0027 C   0  0  0  0  0  0  0  0  0  0  0  0
   76.5194   42.0967   38.8546 C   0  0  0  0  0  0  0  0  0  0  0  0
   76.5201   42.7542   37.8233 O   0  0  0  0  0  0  0  0  0  0  0  0
   75.7054   41.0310   39.1900 N   0  0  0  0  0  0  0  0  0  0  0  0
   74.4128   40.7724   38.5325 C   0  0  2  0  0  0  0  0  0  0  0  0
   73.3371   41.5500   39.2668 C   0  0  0  0  0  0  0  0  0  0  0  0
   73.5985   42.4389   40.0586 O   0  0  0  0  0  0  0  0  0  0  0  0
   72.0398   41.2212   38.9587 N   0  0  0  0  0  0  0  0  0  0  0  0
   71.5935   40.1545   38.2173 C   0  0  0  0  0  0  0  0  0  0  0  0
   70.4066   40.0090   37.9619 O   0  0  0  0  0  0  0  0  0  0  0  0
   72.6664   39.2112   37.7063 C   0  0  0  0  0  0  0  0  0  0  0  0
   73.9662   39.3148   38.5009 C   0  0  0  0  0  0  0  0  0  0  0  0
   76.0772   40.4565   40.4693 C   0  0  0  0  0  0  0  0  0  0  0  0
   78.3502   43.3283   40.1888 C   0  0  0  0  0  0  0  0  0  0  0  0
   79.0547   43.3205   41.3863 C   0  0  0  0  0  0  0  0  0  0  0  0
   78.7914   42.3549   42.3581 C   0  0  0  0  0  0  0  0  0  0  0  0
   77.6329   40.6267   42.9153 H   0  0  0  0  0  0  0  0  0  0  0  0
   74.4599   41.1942   37.5219 H   0  0  0  0  0  0  0  0  0  0  0  0
   71.3312   41.8391   39.3351 H   0  0  0  0  0  0  0  0  0  0  0  0
   72.2820   38.1879   37.7600 H   0  0  0  0  0  0  0  0  0  0  0  0
   72.8450   39.4488   36.6519 H   0  0  0  0  0  0  0  0  0  0  0  0
   73.8072   38.9396   39.5187 H   0  0  0  0  0  0  0  0  0  0  0  0
   74.7340   38.6800   38.0496 H   0  0  0  0  0  0  0  0  0  0  0  0
   76.4364   39.4325   40.3205 H   0  0  0  0  0  0  0  0  0  0  0  0
   75.2199   40.4847   41.1356 H   0  0  0  0  0  0  0  0  0  0  0  0
   78.5300   44.0875   39.4348 H   0  0  0  0  0  0  0  0  0  0  0  0
   79.8034   44.0836   41.5737 H   0  0  0  0  0  0  0  0  0  0  0  0
   79.3436   42.3712   43.2927 H   0  0  0  0  0  0  0  0  0  0  0  0
  1 19  1  0  0  0  0
  1 18  2  0  0  0  0
  1  2  1  0  0  0  0
  2  3  2  0  0  0  0
  2 15  1  0  0  0  0
  3 16  1  0  0  0  0
  3  4  1  0  0  0  0
  4  6  1  0  0  0  0
  4  5  2  0  0  0  0
  6 15  1  0  0  0  0
  7  6  1  0  0  0  0
  7 20  1  0  0  0  0
  7  8  1  0  0  0  0
  7 14  1  0  0  0  0
  8  9  2  0  0  0  0
  8 10  1  0  0  0  0
 10 21  1  0  0  0  0
 10 11  1  0  0  0  0
 11 12  2  0  0  0  0
 11 13  1  0  0  0  0
 13 22  1  0  0  0  0
 13 23  1  0  0  0  0
 13 14  1  0  0  0  0
 14 24  1  0  0  0  0
 14 25  1  0  0  0  0
 15 26  1  0  0  0  0
 15 27  1  0  0  0  0
 16 17  2  0  0  0  0
 16 28  1  0  0  0  0
 17 18  1  0  0  0  0
 17 29  1  0  0  0  0
 18 30  1  0  0  0  0
M  ZZC   1 c1
M  ZZC   2 c2
M  ZZC   3 c3
M  ZZC   4 c4
M  ZZC   5 o1
M  ZZC   6 n1
M  ZZC   7 c5
M  ZZC   8 c6
M  ZZC   9 o2
M  ZZC  10 n2
M  ZZC  11 c7
M  ZZC  12 o3
M  ZZC  13 c8
M  ZZC  14 c9
M  ZZC  15 c10
M  ZZC  16 c11
M  ZZC  17 c12
M  ZZC  18 c13
M  ZZC  19 h11
M  ZZC  20 h51
M  ZZC  21 h21
M  ZZC  22 h81
M  ZZC  23 h82
M  ZZC  24 h91
M  ZZC  25 h92
M  ZZC  26 h101
M  ZZC  27 h102
M  ZZC  28 h111
M  ZZC  29 h121
M  ZZC  30 h131
M  ZZM   1 37
M  ZZI   1 125
M  ZZM   2 37
M  ZZI   2 124
M  ZZM   3 37
M  ZZI   3 124
M  ZZM   4 3
M  ZZI   4 121
M  ZZM   5 7
M  ZZI   5 81
M  ZZM   6 10
M  ZZI   6 192
M  ZZM   7 1
M  ZZI   7 113
M  ZZM   8 3
M  ZZI   8 121
M  ZZM   9 7
M  ZZI   9 81
M  ZZM  10 10
M  ZZI  10 191
M  ZZM  11 3
M  ZZI  11 121
M  ZZM  12 7
M  ZZI  12 81
M  ZZM  13 1
M  ZZI  13 112
M  ZZM  14 1
M  ZZI  14 112
M  ZZM  15 1
M  ZZI  15 112
M  ZZM  16 37
M  ZZI  16 125
M  ZZM  17 37
M  ZZI  17 125
M  ZZM  18 37
M  ZZI  18 125
M  ZZM  19 5
M  ZZI  19 1
M  ZZM  20 5
M  ZZI  20 1
M  ZZM  21 28
M  ZZI  21 11
M  ZZM  22 5
M  ZZI  22 1
M  ZZM  23 5
M  ZZI  23 1
M  ZZM  24 5
M  ZZI  24 1
M  ZZM  25 5
M  ZZI  25 1
M  ZZM  26 5
M  ZZI  26 1
M  ZZM  27 5
M  ZZI  27 1
M  ZZM  28 5
M  ZZI  28 1
M  ZZM  29 5
M  ZZI  29 1
M  ZZM  30 5
M  ZZI  30 1
M  END
> <IX>
1

> <NAME>
Cereblon_5WN8_2.pdb

> <Score>
-15.743915

> <Natom>
30

> <Nflex>
1

> <Hbond>
-4.201987

> <Hphob>
-3.73154

> <VwInt>
-19.447665

> <Dsolv>
13.742592

> <SolEl>
5.923683

> <Eintl>
3.36389

> <RecConf>
ND

> <projPath>
Cereblon_maps/

> <NAME_>
Cereblon_5WN8_2.pdb

$$$$
