Cereblon_5V9O_11.pdb
  MOLSOFT 04032206273D

 31 33  0  0  1  0  0  0  0  0999 V2000
   78.7296   41.7109   43.8963 N   0  0  0  0  0  0  0  0  0  0  0  0
   78.7883   42.4986   42.7351 C   0  0  0  0  0  0  0  0  0  0  0  0
   78.0730   42.1763   41.5939 C   0  0  0  0  0  0  0  0  0  0  0  0
   77.1638   41.0599   41.3697 C   0  0  0  0  0  0  0  0  0  0  0  0
   76.9438   40.1977   42.2068 O   0  0  0  0  0  0  0  0  0  0  0  0
   76.6706   41.2059   40.0885 N   0  0  0  0  0  0  0  0  0  0  0  0
   77.2047   42.3225   39.4792 C   0  0  0  0  0  0  0  0  0  0  0  0
   77.0037   42.7443   38.3479 O   0  0  0  0  0  0  0  0  0  0  0  0
   78.1156   42.9233   40.4557 C   0  0  0  0  0  0  0  0  0  0  0  0
   78.9359   44.0273   40.3450 C   0  0  0  0  0  0  0  0  0  0  0  0
   79.7255   44.3330   41.4468 C   0  0  0  0  0  0  0  0  0  0  0  0
   79.6577   43.5795   42.6210 C   0  0  0  0  0  0  0  0  0  0  0  0
   75.6555   40.3723   39.4408 C   0  0  2  0  0  0  0  0  0  0  0  0
   74.2841   40.9599   39.7282 C   0  0  0  0  0  0  0  0  0  0  0  0
   74.1169   42.1422   39.9780 O   0  0  0  0  0  0  0  0  0  0  0  0
   73.2183   40.1019   39.6110 N   0  0  0  0  0  0  0  0  0  0  0  0
   73.2368   38.7615   39.3102 C   0  0  0  0  0  0  0  0  0  0  0  0
   72.2093   38.1127   39.2015 O   0  0  0  0  0  0  0  0  0  0  0  0
   74.5978   38.1535   39.0688 C   0  0  0  0  0  0  0  0  0  0  0  0
   75.6781   38.8987   39.8334 C   0  0  0  0  0  0  0  0  0  0  0  0
   78.9744   42.1394   44.7878 H   0  0  0  0  0  0  0  0  0  0  0  0
   78.0248   40.9725   43.9248 H   0  0  0  0  0  0  0  0  0  0  0  0
   78.9642   44.6197   39.4381 H   0  0  0  0  0  0  0  0  0  0  0  0
   80.4011   45.1797   41.3975 H   0  0  0  0  0  0  0  0  0  0  0  0
   80.2923   43.8463   43.4607 H   0  0  0  0  0  0  0  0  0  0  0  0
   75.8035   40.4685   38.3638 H   0  0  0  0  0  0  0  0  0  0  0  0
   72.3047   40.5114   39.7616 H   0  0  0  0  0  0  0  0  0  0  0  0
   74.5755   37.1079   39.3919 H   0  0  0  0  0  0  0  0  0  0  0  0
   74.7913   38.1731   37.9918 H   0  0  0  0  0  0  0  0  0  0  0  0
   75.4892   38.7738   40.9034 H   0  0  0  0  0  0  0  0  0  0  0  0
   76.6615   38.4624   39.6309 H   0  0  0  0  0  0  0  0  0  0  0  0
  1  2  1  0  0  0  0
  1 21  1  0  0  0  0
  1 22  1  0  0  0  0
  2  3  1  0  0  0  0
  2 12  2  0  0  0  0
  3  9  2  0  0  0  0
  3  4  1  0  0  0  0
  4  5  2  0  0  0  0
  4  6  1  0  0  0  0
  6  7  1  0  0  0  0
 13  6  1  0  0  0  0
  7  8  2  0  0  0  0
  7  9  1  0  0  0  0
  9 10  1  0  0  0  0
 10 23  1  0  0  0  0
 10 11  2  0  0  0  0
 11 12  1  0  0  0  0
 11 24  1  0  0  0  0
 12 25  1  0  0  0  0
 13 26  1  0  0  0  0
 13 14  1  0  0  0  0
 13 20  1  0  0  0  0
 14 15  2  0  0  0  0
 14 16  1  0  0  0  0
 16 27  1  0  0  0  0
 16 17  1  0  0  0  0
 17 18  2  0  0  0  0
 17 19  1  0  0  0  0
 19 28  1  0  0  0  0
 19 29  1  0  0  0  0
 19 20  1  0  0  0  0
 20 30  1  0  0  0  0
 20 31  1  0  0  0  0
M  ZZC   1 n1
M  ZZC   2 c1
M  ZZC   3 c2
M  ZZC   4 c3
M  ZZC   5 o1
M  ZZC   6 n2
M  ZZC   7 c4
M  ZZC   8 o2
M  ZZC   9 c5
M  ZZC  10 c6
M  ZZC  11 c7
M  ZZC  12 c8
M  ZZC  13 c9
M  ZZC  14 c10
M  ZZC  15 o3
M  ZZC  16 n3
M  ZZC  17 c11
M  ZZC  18 o4
M  ZZC  19 c12
M  ZZC  20 c13
M  ZZC  21 h11
M  ZZC  22 h12
M  ZZC  23 h61
M  ZZC  24 h71
M  ZZC  25 h81
M  ZZC  26 h91
M  ZZC  27 h31
M  ZZC  28 h121
M  ZZC  29 h122
M  ZZC  30 h131
M  ZZC  31 h132
M  ZZM   1 40
M  ZZI   1 224
M  ZZM   2 37
M  ZZI   2 124
M  ZZM   3 37
M  ZZI   3 124
M  ZZM   4 3
M  ZZI   4 121
M  ZZM   5 7
M  ZZI   5 81
M  ZZM   6 10
M  ZZI   6 192
M  ZZM   7 3
M  ZZI   7 121
M  ZZM   8 7
M  ZZI   8 81
M  ZZM   9 37
M  ZZI   9 124
M  ZZM  10 37
M  ZZI  10 125
M  ZZM  11 37
M  ZZI  11 125
M  ZZM  12 37
M  ZZI  12 125
M  ZZM  13 1
M  ZZI  13 113
M  ZZM  14 3
M  ZZI  14 121
M  ZZM  15 7
M  ZZI  15 81
M  ZZM  16 10
M  ZZI  16 191
M  ZZM  17 3
M  ZZI  17 121
M  ZZM  18 7
M  ZZI  18 81
M  ZZM  19 1
M  ZZI  19 112
M  ZZM  20 1
M  ZZI  20 112
M  ZZM  21 28
M  ZZI  21 11
M  ZZM  22 28
M  ZZI  22 11
M  ZZM  23 5
M  ZZI  23 1
M  ZZM  24 5
M  ZZI  24 1
M  ZZM  25 5
M  ZZI  25 1
M  ZZM  26 5
M  ZZI  26 1
M  ZZM  27 28
M  ZZI  27 11
M  ZZM  28 5
M  ZZI  28 1
M  ZZM  29 5
M  ZZI  29 1
M  ZZM  30 5
M  ZZI  30 1
M  ZZM  31 5
M  ZZI  31 1
M  END
> <IX>
1

> <NAME>
Cereblon_5V9O_11.pdb

> <Score>
-21.593884

> <Natom>
31

> <Nflex>
1

> <Hbond>
-4.850916

> <Hphob>
-3.57725

> <VwInt>
-24.123409

> <Dsolv>
15.219778

> <SolEl>
6.189849

> <Eintl>
1.83161

> <RecConf>
ND

> <projPath>
Cereblon_maps/

> <NAME_>
Cereblon_5V9O_11.pdb

$$$$
