Cereblon_7NQ8_1.pdb
  MOLSOFT 04032206303D

 29 31  0  0  1  0  0  0  0  0999 V2000
   79.0032   42.4901   42.6735 C   0  0  0  0  0  0  0  0  0  0  0  0
   78.1857   42.1951   41.5969 C   0  0  0  0  0  0  0  0  0  0  0  0
   77.2676   41.0775   41.4112 C   0  0  0  0  0  0  0  0  0  0  0  0
   77.0861   40.2174   42.2592 O   0  0  0  0  0  0  0  0  0  0  0  0
   76.7275   41.2203   40.1462 N   0  0  0  0  0  0  0  0  0  0  0  0
   77.2235   42.3478   39.5237 C   0  0  0  0  0  0  0  0  0  0  0  0
   76.9884   42.7656   38.3973 O   0  0  0  0  0  0  0  0  0  0  0  0
   78.1592   42.9583   40.4685 C   0  0  0  0  0  0  0  0  0  0  0  0
   78.9583   44.0744   40.3270 C   0  0  0  0  0  0  0  0  0  0  0  0
   79.8000   44.3836   41.3897 C   0  0  0  0  0  0  0  0  0  0  0  0
   79.8223   43.6057   42.5478 C   0  0  0  0  0  0  0  0  0  0  0  0
   75.7194   40.3655   39.5127 C   0  0  2  0  0  0  0  0  0  0  0  0
   74.3393   40.9340   39.8020 C   0  0  0  0  0  0  0  0  0  0  0  0
   74.1524   42.1201   40.0168 O   0  0  0  0  0  0  0  0  0  0  0  0
   73.2892   40.0519   39.7254 N   0  0  0  0  0  0  0  0  0  0  0  0
   73.3276   38.7059   39.4553 C   0  0  0  0  0  0  0  0  0  0  0  0
   72.3121   38.0318   39.4005 O   0  0  0  0  0  0  0  0  0  0  0  0
   74.6922   38.1250   39.1771 C   0  0  0  0  0  0  0  0  0  0  0  0
   75.7742   38.8949   39.9139 C   0  0  0  0  0  0  0  0  0  0  0  0
   79.0128   41.8749   43.5689 H   0  0  0  0  0  0  0  0  0  0  0  0
   78.9272   44.6766   39.4268 H   0  0  0  0  0  0  0  0  0  0  0  0
   80.4471   45.2504   41.3212 H   0  0  0  0  0  0  0  0  0  0  0  0
   80.4879   43.8752   43.3629 H   0  0  0  0  0  0  0  0  0  0  0  0
   75.8584   40.4540   38.4332 H   0  0  0  0  0  0  0  0  0  0  0  0
   72.3708   40.4454   39.8888 H   0  0  0  0  0  0  0  0  0  0  0  0
   74.6999   37.0792   39.5005 H   0  0  0  0  0  0  0  0  0  0  0  0
   74.8528   38.1477   38.0949 H   0  0  0  0  0  0  0  0  0  0  0  0
   75.6112   38.7753   40.9886 H   0  0  0  0  0  0  0  0  0  0  0  0
   76.7599   38.4735   39.6914 H   0  0  0  0  0  0  0  0  0  0  0  0
  1 20  1  0  0  0  0
  1  2  1  0  0  0  0
  1 11  2  0  0  0  0
  2  3  1  0  0  0  0
  2  8  2  0  0  0  0
  3  4  2  0  0  0  0
  3  5  1  0  0  0  0
  5  6  1  0  0  0  0
 12  5  1  0  0  0  0
  6  7  2  0  0  0  0
  6  8  1  0  0  0  0
  8  9  1  0  0  0  0
  9 21  1  0  0  0  0
  9 10  2  0  0  0  0
 10 22  1  0  0  0  0
 10 11  1  0  0  0  0
 11 23  1  0  0  0  0
 12 24  1  0  0  0  0
 12 13  1  0  0  0  0
 12 19  1  0  0  0  0
 13 14  2  0  0  0  0
 13 15  1  0  0  0  0
 15 25  1  0  0  0  0
 15 16  1  0  0  0  0
 16 17  2  0  0  0  0
 16 18  1  0  0  0  0
 18 26  1  0  0  0  0
 18 27  1  0  0  0  0
 18 19  1  0  0  0  0
 19 28  1  0  0  0  0
 19 29  1  0  0  0  0
M  ZZC   1 c1
M  ZZC   2 c2
M  ZZC   3 c3
M  ZZC   4 o1
M  ZZC   5 n1
M  ZZC   6 c4
M  ZZC   7 o2
M  ZZC   8 c5
M  ZZC   9 c6
M  ZZC  10 c7
M  ZZC  11 c8
M  ZZC  12 c9
M  ZZC  13 c10
M  ZZC  14 o3
M  ZZC  15 n2
M  ZZC  16 c11
M  ZZC  17 o4
M  ZZC  18 c12
M  ZZC  19 c13
M  ZZC  20 h11
M  ZZC  21 h61
M  ZZC  22 h71
M  ZZC  23 h81
M  ZZC  24 h91
M  ZZC  25 h21
M  ZZC  26 h121
M  ZZC  27 h122
M  ZZC  28 h131
M  ZZC  29 h132
M  ZZM   1 37
M  ZZI   1 125
M  ZZM   2 37
M  ZZI   2 124
M  ZZM   3 3
M  ZZI   3 121
M  ZZM   4 7
M  ZZI   4 81
M  ZZM   5 10
M  ZZI   5 192
M  ZZM   6 3
M  ZZI   6 121
M  ZZM   7 7
M  ZZI   7 81
M  ZZM   8 37
M  ZZI   8 124
M  ZZM   9 37
M  ZZI   9 125
M  ZZM  10 37
M  ZZI  10 125
M  ZZM  11 37
M  ZZI  11 125
M  ZZM  12 1
M  ZZI  12 113
M  ZZM  13 3
M  ZZI  13 121
M  ZZM  14 7
M  ZZI  14 81
M  ZZM  15 10
M  ZZI  15 191
M  ZZM  16 3
M  ZZI  16 121
M  ZZM  17 7
M  ZZI  17 81
M  ZZM  18 1
M  ZZI  18 112
M  ZZM  19 1
M  ZZI  19 112
M  ZZM  20 5
M  ZZI  20 1
M  ZZM  21 5
M  ZZI  21 1
M  ZZM  22 5
M  ZZI  22 1
M  ZZM  23 5
M  ZZI  23 1
M  ZZM  24 5
M  ZZI  24 1
M  ZZM  25 28
M  ZZI  25 11
M  ZZM  26 5
M  ZZI  26 1
M  ZZM  27 5
M  ZZI  27 1
M  ZZM  28 5
M  ZZI  28 1
M  ZZM  29 5
M  ZZI  29 1
M  END
> <IX>
1

> <NAME>
Cereblon_7NQ8_1.pdb

> <Score>
-19.341649

> <Natom>
29

> <Nflex>
1

> <Hbond>
-3.368892

> <Hphob>
-3.580132

> <VwInt>
-22.697405

> <Dsolv>
12.002912

> <SolEl>
5.737635

> <Eintl>
1.481196

> <RecConf>
ND

> <projPath>
Cereblon_maps/

> <NAME_>
Cereblon_7NQ8_1.pdb

$$$$
