Cereblon_2VTI_6.pdb
  MOLSOFT 04032206203D

 29 31  0  0  1  0  0  0  0  0999 V2000
   79.0023   42.4892   42.6709 C   0  0  0  0  0  0  0  0  0  0  0  0
   78.1834   42.1942   41.5952 C   0  0  0  0  0  0  0  0  0  0  0  0
   77.2662   41.0758   41.4095 C   0  0  0  0  0  0  0  0  0  0  0  0
   77.0864   40.2144   42.2566 O   0  0  0  0  0  0  0  0  0  0  0  0
   76.7253   41.2187   40.1446 N   0  0  0  0  0  0  0  0  0  0  0  0
   77.2221   42.3455   39.5215 C   0  0  0  0  0  0  0  0  0  0  0  0
   76.9867   42.7648   38.3956 O   0  0  0  0  0  0  0  0  0  0  0  0
   78.1567   42.9569   40.4665 C   0  0  0  0  0  0  0  0  0  0  0  0
   78.9561   44.0731   40.3245 C   0  0  0  0  0  0  0  0  0  0  0  0
   79.7984   44.3829   41.3863 C   0  0  0  0  0  0  0  0  0  0  0  0
   79.8221   43.6043   42.5441 C   0  0  0  0  0  0  0  0  0  0  0  0
   75.7164   40.3646   39.5125 C   0  0  2  0  0  0  0  0  0  0  0  0
   74.3369   40.9333   39.8018 C   0  0  0  0  0  0  0  0  0  0  0  0
   74.1495   42.1192   40.0176 O   0  0  0  0  0  0  0  0  0  0  0  0
   73.2866   40.0514   39.7251 N   0  0  0  0  0  0  0  0  0  0  0  0
   73.3246   38.7061   39.4511 C   0  0  0  0  0  0  0  0  0  0  0  0
   72.3086   38.0333   39.3901 O   0  0  0  0  0  0  0  0  0  0  0  0
   74.6893   38.1242   39.1756 C   0  0  0  0  0  0  0  0  0  0  0  0
   75.7706   38.8938   39.9133 C   0  0  0  0  0  0  0  0  0  0  0  0
   79.0131   41.8742   43.5665 H   0  0  0  0  0  0  0  0  0  0  0  0
   78.9268   44.6744   39.4234 H   0  0  0  0  0  0  0  0  0  0  0  0
   80.4480   45.2478   41.3154 H   0  0  0  0  0  0  0  0  0  0  0  0
   80.4901   43.8715   43.3581 H   0  0  0  0  0  0  0  0  0  0  0  0
   75.8550   40.4538   38.4330 H   0  0  0  0  0  0  0  0  0  0  0  0
   72.3681   40.4448   39.8876 H   0  0  0  0  0  0  0  0  0  0  0  0
   74.6940   37.0786   39.5001 H   0  0  0  0  0  0  0  0  0  0  0  0
   74.8513   38.1462   38.0936 H   0  0  0  0  0  0  0  0  0  0  0  0
   75.6070   38.7740   40.9878 H   0  0  0  0  0  0  0  0  0  0  0  0
   76.7562   38.4718   39.6906 H   0  0  0  0  0  0  0  0  0  0  0  0
  1 20  1  0  0  0  0
  1  2  1  0  0  0  0
  1 11  2  0  0  0  0
  2  3  1  0  0  0  0
  2  8  2  0  0  0  0
  3  4  2  0  0  0  0
  3  5  1  0  0  0  0
  5  6  1  0  0  0  0
 12  5  1  0  0  0  0
  6  7  2  0  0  0  0
  6  8  1  0  0  0  0
  8  9  1  0  0  0  0
  9 21  1  0  0  0  0
  9 10  2  0  0  0  0
 10 22  1  0  0  0  0
 10 11  1  0  0  0  0
 11 23  1  0  0  0  0
 12 24  1  0  0  0  0
 12 13  1  0  0  0  0
 12 19  1  0  0  0  0
 13 14  2  0  0  0  0
 13 15  1  0  0  0  0
 15 25  1  0  0  0  0
 15 16  1  0  0  0  0
 16 17  2  0  0  0  0
 16 18  1  0  0  0  0
 18 26  1  0  0  0  0
 18 27  1  0  0  0  0
 18 19  1  0  0  0  0
 19 28  1  0  0  0  0
 19 29  1  0  0  0  0
M  ZZC   1 c1
M  ZZC   2 c2
M  ZZC   3 c3
M  ZZC   4 o1
M  ZZC   5 n1
M  ZZC   6 c4
M  ZZC   7 o2
M  ZZC   8 c5
M  ZZC   9 c6
M  ZZC  10 c7
M  ZZC  11 c8
M  ZZC  12 c9
M  ZZC  13 c10
M  ZZC  14 o3
M  ZZC  15 n2
M  ZZC  16 c11
M  ZZC  17 o4
M  ZZC  18 c12
M  ZZC  19 c13
M  ZZC  20 h11
M  ZZC  21 h61
M  ZZC  22 h71
M  ZZC  23 h81
M  ZZC  24 h91
M  ZZC  25 h21
M  ZZC  26 h121
M  ZZC  27 h122
M  ZZC  28 h131
M  ZZC  29 h132
M  ZZM   1 37
M  ZZI   1 125
M  ZZM   2 37
M  ZZI   2 124
M  ZZM   3 3
M  ZZI   3 121
M  ZZM   4 7
M  ZZI   4 81
M  ZZM   5 10
M  ZZI   5 192
M  ZZM   6 3
M  ZZI   6 121
M  ZZM   7 7
M  ZZI   7 81
M  ZZM   8 37
M  ZZI   8 124
M  ZZM   9 37
M  ZZI   9 125
M  ZZM  10 37
M  ZZI  10 125
M  ZZM  11 37
M  ZZI  11 125
M  ZZM  12 1
M  ZZI  12 113
M  ZZM  13 3
M  ZZI  13 121
M  ZZM  14 7
M  ZZI  14 81
M  ZZM  15 10
M  ZZI  15 191
M  ZZM  16 3
M  ZZI  16 121
M  ZZM  17 7
M  ZZI  17 81
M  ZZM  18 1
M  ZZI  18 112
M  ZZM  19 1
M  ZZI  19 112
M  ZZM  20 5
M  ZZI  20 1
M  ZZM  21 5
M  ZZI  21 1
M  ZZM  22 5
M  ZZI  22 1
M  ZZM  23 5
M  ZZI  23 1
M  ZZM  24 5
M  ZZI  24 1
M  ZZM  25 28
M  ZZI  25 11
M  ZZM  26 5
M  ZZI  26 1
M  ZZM  27 5
M  ZZI  27 1
M  ZZM  28 5
M  ZZI  28 1
M  ZZM  29 5
M  ZZI  29 1
M  END
> <IX>
1

> <NAME>
Cereblon_2VTI_6.pdb

> <Score>
-19.339784

> <Natom>
29

> <Nflex>
1

> <Hbond>
-3.371794

> <Hphob>
-3.529059

> <VwInt>
-22.686522

> <Dsolv>
12.099743

> <SolEl>
5.589603

> <Eintl>
1.463169

> <RecConf>
ND

> <projPath>
Cereblon_maps/

> <NAME_>
Cereblon_2VTI_6.pdb

$$$$
