Cereblon_2HYY_15.pdb
  MOLSOFT 04032206203D

 31 33  0  0  1  0  0  0  0  0999 V2000
   77.6027   41.8661   41.9539 N   0  0  0  0  0  0  0  0  0  0  0  0
   77.2719   40.5618   41.5547 C   0  0  0  0  0  0  0  0  0  0  0  0
   76.3419   40.2798   40.5604 C   0  0  0  0  0  0  0  0  0  0  0  0
   75.4353   41.1593   39.8149 C   0  0  0  0  0  0  0  0  0  0  0  0
   75.2929   42.3525   40.0313 O   0  0  0  0  0  0  0  0  0  0  0  0
   74.7742   40.3645   38.9033 N   0  0  0  0  0  0  0  0  0  0  0  0
   75.1006   39.0404   39.0826 C   0  0  0  0  0  0  0  0  0  0  0  0
   74.6514   38.0481   38.5283 O   0  0  0  0  0  0  0  0  0  0  0  0
   76.1187   39.0054   40.1291 C   0  0  0  0  0  0  0  0  0  0  0  0
   76.7895   37.9143   40.6463 C   0  0  0  0  0  0  0  0  0  0  0  0
   77.7181   38.1694   41.6436 C   0  0  0  0  0  0  0  0  0  0  0  0
   77.9538   39.4703   42.0830 C   0  0  0  0  0  0  0  0  0  0  0  0
   73.7495   40.8222   37.9605 C   0  0  2  0  0  0  0  0  0  0  0  0
   74.1886   42.0619   37.1837 C   0  0  0  0  0  0  0  0  0  0  0  0
   75.3590   42.3307   36.9523 O   0  0  0  0  0  0  0  0  0  0  0  0
   73.1692   42.8375   36.6803 N   0  0  0  0  0  0  0  0  0  0  0  0
   71.8118   42.6567   36.8002 C   0  0  0  0  0  0  0  0  0  0  0  0
   71.0112   43.4023   36.2571 O   0  0  0  0  0  0  0  0  0  0  0  0
   71.3738   41.4542   37.6014 C   0  0  0  0  0  0  0  0  0  0  0  0
   72.4102   41.0637   38.6444 C   0  0  0  0  0  0  0  0  0  0  0  0
   78.0574   42.0048   42.8541 H   0  0  0  0  0  0  0  0  0  0  0  0
   77.1035   42.6568   41.5447 H   0  0  0  0  0  0  0  0  0  0  0  0
   76.6003   36.9058   40.2901 H   0  0  0  0  0  0  0  0  0  0  0  0
   78.2687   37.3460   42.0882 H   0  0  0  0  0  0  0  0  0  0  0  0
   78.6886   39.6324   42.8651 H   0  0  0  0  0  0  0  0  0  0  0  0
   73.6169   40.0272   37.2175 H   0  0  0  0  0  0  0  0  0  0  0  0
   73.4513   43.6463   36.1434 H   0  0  0  0  0  0  0  0  0  0  0  0
   70.4270   41.6936   38.0942 H   0  0  0  0  0  0  0  0  0  0  0  0
   71.1923   40.6292   36.9047 H   0  0  0  0  0  0  0  0  0  0  0  0
   72.5030   41.8437   39.4069 H   0  0  0  0  0  0  0  0  0  0  0  0
   72.0794   40.1611   39.1687 H   0  0  0  0  0  0  0  0  0  0  0  0
  1  2  1  0  0  0  0
  1 21  1  0  0  0  0
  1 22  1  0  0  0  0
  2  3  1  0  0  0  0
  2 12  2  0  0  0  0
  3  9  2  0  0  0  0
  3  4  1  0  0  0  0
  4  5  2  0  0  0  0
  4  6  1  0  0  0  0
  6  7  1  0  0  0  0
 13  6  1  0  0  0  0
  7  8  2  0  0  0  0
  7  9  1  0  0  0  0
  9 10  1  0  0  0  0
 10 23  1  0  0  0  0
 10 11  2  0  0  0  0
 11 12  1  0  0  0  0
 11 24  1  0  0  0  0
 12 25  1  0  0  0  0
 13 26  1  0  0  0  0
 13 14  1  0  0  0  0
 13 20  1  0  0  0  0
 14 15  2  0  0  0  0
 14 16  1  0  0  0  0
 16 27  1  0  0  0  0
 16 17  1  0  0  0  0
 17 18  2  0  0  0  0
 17 19  1  0  0  0  0
 19 28  1  0  0  0  0
 19 29  1  0  0  0  0
 19 20  1  0  0  0  0
 20 30  1  0  0  0  0
 20 31  1  0  0  0  0
M  ZZC   1 n1
M  ZZC   2 c1
M  ZZC   3 c2
M  ZZC   4 c3
M  ZZC   5 o1
M  ZZC   6 n2
M  ZZC   7 c4
M  ZZC   8 o2
M  ZZC   9 c5
M  ZZC  10 c6
M  ZZC  11 c7
M  ZZC  12 c8
M  ZZC  13 c9
M  ZZC  14 c10
M  ZZC  15 o3
M  ZZC  16 n3
M  ZZC  17 c11
M  ZZC  18 o4
M  ZZC  19 c12
M  ZZC  20 c13
M  ZZC  21 h11
M  ZZC  22 h12
M  ZZC  23 h61
M  ZZC  24 h71
M  ZZC  25 h81
M  ZZC  26 h91
M  ZZC  27 h31
M  ZZC  28 h121
M  ZZC  29 h122
M  ZZC  30 h131
M  ZZC  31 h132
M  ZZM   1 40
M  ZZI   1 224
M  ZZM   2 37
M  ZZI   2 124
M  ZZM   3 37
M  ZZI   3 124
M  ZZM   4 3
M  ZZI   4 121
M  ZZM   5 7
M  ZZI   5 81
M  ZZM   6 10
M  ZZI   6 192
M  ZZM   7 3
M  ZZI   7 121
M  ZZM   8 7
M  ZZI   8 81
M  ZZM   9 37
M  ZZI   9 124
M  ZZM  10 37
M  ZZI  10 125
M  ZZM  11 37
M  ZZI  11 125
M  ZZM  12 37
M  ZZI  12 125
M  ZZM  13 1
M  ZZI  13 113
M  ZZM  14 3
M  ZZI  14 121
M  ZZM  15 7
M  ZZI  15 81
M  ZZM  16 10
M  ZZI  16 191
M  ZZM  17 3
M  ZZI  17 121
M  ZZM  18 7
M  ZZI  18 81
M  ZZM  19 1
M  ZZI  19 112
M  ZZM  20 1
M  ZZI  20 112
M  ZZM  21 28
M  ZZI  21 11
M  ZZM  22 28
M  ZZI  22 11
M  ZZM  23 5
M  ZZI  23 1
M  ZZM  24 5
M  ZZI  24 1
M  ZZM  25 5
M  ZZI  25 1
M  ZZM  26 5
M  ZZI  26 1
M  ZZM  27 28
M  ZZI  27 11
M  ZZM  28 5
M  ZZI  28 1
M  ZZM  29 5
M  ZZI  29 1
M  ZZM  30 5
M  ZZI  30 1
M  ZZM  31 5
M  ZZI  31 1
M  END
> <IX>
1

> <NAME>
Cereblon_2HYY_15.pdb

> <Score>
-15.058365

> <Natom>
31

> <Nflex>
1

> <Hbond>
-4.131539

> <Hphob>
-3.522564

> <VwInt>
-23.237823

> <Dsolv>
17.375488

> <SolEl>
8.068484

> <Eintl>
3.392589

> <RecConf>
ND

> <projPath>
Cereblon_maps/

> <NAME_>
Cereblon_2HYY_15.pdb

$$$$
