Cereblon_5TRF_4.pdb
  MOLSOFT 04032206273D

 31 33  0  0  1  0  0  0  0  0999 V2000
   76.7307   41.9905   40.4774 N   0  0  0  0  0  0  0  0  0  0  0  0
   76.3214   40.6813   40.1807 C   0  0  0  0  0  0  0  0  0  0  0  0
   75.2232   40.4152   39.3818 C   0  0  0  0  0  0  0  0  0  0  0  0
   74.3440   41.3476   38.6871 C   0  0  0  0  0  0  0  0  0  0  0  0
   74.4025   42.5569   38.8518 O   0  0  0  0  0  0  0  0  0  0  0  0
   73.4808   40.5826   37.9253 N   0  0  0  0  0  0  0  0  0  0  0  0
   73.6912   39.2384   38.1624 C   0  0  0  0  0  0  0  0  0  0  0  0
   73.0991   38.2678   37.7132 O   0  0  0  0  0  0  0  0  0  0  0  0
   74.8108   39.1509   39.0982 C   0  0  0  0  0  0  0  0  0  0  0  0
   75.4258   38.0406   39.6454 C   0  0  0  0  0  0  0  0  0  0  0  0
   76.4934   38.2777   40.5028 C   0  0  0  0  0  0  0  0  0  0  0  0
   76.9262   39.5767   40.7723 C   0  0  0  0  0  0  0  0  0  0  0  0
   72.3968   41.0792   37.0656 C   0  0  1  0  0  0  0  0  0  0  0  0
   71.1514   41.3410   37.9064 C   0  0  0  0  0  0  0  0  0  0  0  0
   70.8905   40.7234   38.9284 O   0  0  0  0  0  0  0  0  0  0  0  0
   70.2667   42.2640   37.3993 N   0  0  0  0  0  0  0  0  0  0  0  0
   70.3851   43.0474   36.2829 C   0  0  0  0  0  0  0  0  0  0  0  0
   69.5639   43.9150   36.0307 O   0  0  0  0  0  0  0  0  0  0  0  0
   71.5712   42.7482   35.4021 C   0  0  0  0  0  0  0  0  0  0  0  0
   72.7620   42.3143   36.2414 C   0  0  0  0  0  0  0  0  0  0  0  0
   77.6683   42.1217   40.8517 H   0  0  0  0  0  0  0  0  0  0  0  0
   76.3436   42.7494   39.9162 H   0  0  0  0  0  0  0  0  0  0  0  0
   75.0901   37.0327   39.4199 H   0  0  0  0  0  0  0  0  0  0  0  0
   77.0018   37.4387   40.9680 H   0  0  0  0  0  0  0  0  0  0  0  0
   77.7608   39.7253   41.4502 H   0  0  0  0  0  0  0  0  0  0  0  0
   72.1269   40.2667   36.3808 H   0  0  0  0  0  0  0  0  0  0  0  0
   69.4391   42.4343   37.9518 H   0  0  0  0  0  0  0  0  0  0  0  0
   71.2858   41.9708   34.6853 H   0  0  0  0  0  0  0  0  0  0  0  0
   71.8191   43.6525   34.8415 H   0  0  0  0  0  0  0  0  0  0  0  0
   73.6192   42.0981   35.5959 H   0  0  0  0  0  0  0  0  0  0  0  0
   73.0548   43.1490   36.8856 H   0  0  0  0  0  0  0  0  0  0  0  0
  1  2  1  0  0  0  0
  1 21  1  0  0  0  0
  1 22  1  0  0  0  0
  2  3  1  0  0  0  0
  2 12  2  0  0  0  0
  3  9  2  0  0  0  0
  3  4  1  0  0  0  0
  4  5  2  0  0  0  0
  4  6  1  0  0  0  0
  6  7  1  0  0  0  0
 13  6  1  0  0  0  0
  7  8  2  0  0  0  0
  7  9  1  0  0  0  0
  9 10  1  0  0  0  0
 10 23  1  0  0  0  0
 10 11  2  0  0  0  0
 11 12  1  0  0  0  0
 11 24  1  0  0  0  0
 12 25  1  0  0  0  0
 13 26  1  0  0  0  0
 13 14  1  0  0  0  0
 13 20  1  0  0  0  0
 14 15  2  0  0  0  0
 14 16  1  0  0  0  0
 16 27  1  0  0  0  0
 16 17  1  0  0  0  0
 17 18  2  0  0  0  0
 17 19  1  0  0  0  0
 19 28  1  0  0  0  0
 19 29  1  0  0  0  0
 19 20  1  0  0  0  0
 20 30  1  0  0  0  0
 20 31  1  0  0  0  0
M  ZZC   1 n1
M  ZZC   2 c1
M  ZZC   3 c2
M  ZZC   4 c3
M  ZZC   5 o1
M  ZZC   6 n2
M  ZZC   7 c4
M  ZZC   8 o2
M  ZZC   9 c5
M  ZZC  10 c6
M  ZZC  11 c7
M  ZZC  12 c8
M  ZZC  13 c9
M  ZZC  14 c10
M  ZZC  15 o3
M  ZZC  16 n3
M  ZZC  17 c11
M  ZZC  18 o4
M  ZZC  19 c12
M  ZZC  20 c13
M  ZZC  21 h11
M  ZZC  22 h12
M  ZZC  23 h61
M  ZZC  24 h71
M  ZZC  25 h81
M  ZZC  26 h91
M  ZZC  27 h31
M  ZZC  28 h121
M  ZZC  29 h122
M  ZZC  30 h131
M  ZZC  31 h132
M  ZZM   1 40
M  ZZI   1 224
M  ZZM   2 37
M  ZZI   2 124
M  ZZM   3 37
M  ZZI   3 124
M  ZZM   4 3
M  ZZI   4 121
M  ZZM   5 7
M  ZZI   5 81
M  ZZM   6 10
M  ZZI   6 192
M  ZZM   7 3
M  ZZI   7 121
M  ZZM   8 7
M  ZZI   8 81
M  ZZM   9 37
M  ZZI   9 124
M  ZZM  10 37
M  ZZI  10 125
M  ZZM  11 37
M  ZZI  11 125
M  ZZM  12 37
M  ZZI  12 125
M  ZZM  13 1
M  ZZI  13 113
M  ZZM  14 3
M  ZZI  14 121
M  ZZM  15 7
M  ZZI  15 81
M  ZZM  16 10
M  ZZI  16 191
M  ZZM  17 3
M  ZZI  17 121
M  ZZM  18 7
M  ZZI  18 81
M  ZZM  19 1
M  ZZI  19 112
M  ZZM  20 1
M  ZZI  20 112
M  ZZM  21 28
M  ZZI  21 11
M  ZZM  22 28
M  ZZI  22 11
M  ZZM  23 5
M  ZZI  23 1
M  ZZM  24 5
M  ZZI  24 1
M  ZZM  25 5
M  ZZI  25 1
M  ZZM  26 5
M  ZZI  26 1
M  ZZM  27 28
M  ZZI  27 11
M  ZZM  28 5
M  ZZI  28 1
M  ZZM  29 5
M  ZZI  29 1
M  ZZM  30 5
M  ZZI  30 1
M  ZZM  31 5
M  ZZI  31 1
M  END
> <IX>
1

> <NAME>
Cereblon_5TRF_4.pdb

> <Score>
-19.560107

> <Natom>
31

> <Nflex>
1

> <Hbond>
-4.843141

> <Hphob>
-3.502629

> <VwInt>
-25.262641

> <Dsolv>
15.968038

> <SolEl>
10.452875

> <Eintl>
1.379192

> <RecConf>
ND

> <projPath>
Cereblon_maps/

> <NAME_>
Cereblon_5TRF_4.pdb

$$$$
