Cereblon_6J3O_1.pdb
  MOLSOFT 04032206283D

 29 31  0  0  1  0  0  0  0  0999 V2000
   77.0332   40.7757   41.5266 C   0  0  0  0  0  0  0  0  0  0  0  0
   76.1635   40.4187   40.5112 C   0  0  0  0  0  0  0  0  0  0  0  0
   75.2321   41.2381   39.7396 C   0  0  0  0  0  0  0  0  0  0  0  0
   75.0293   42.4212   39.9545 O   0  0  0  0  0  0  0  0  0  0  0  0
   74.6504   40.4101   38.8075 N   0  0  0  0  0  0  0  0  0  0  0  0
   75.0413   39.1043   39.0094 C   0  0  0  0  0  0  0  0  0  0  0  0
   74.6382   38.0832   38.4718 O   0  0  0  0  0  0  0  0  0  0  0  0
   76.0454   39.1344   40.0736 C   0  0  0  0  0  0  0  0  0  0  0  0
   76.7860   38.1035   40.6218 C   0  0  0  0  0  0  0  0  0  0  0  0
   77.6597   38.4372   41.6511 C   0  0  0  0  0  0  0  0  0  0  0  0
   77.7784   39.7533   42.0984 C   0  0  0  0  0  0  0  0  0  0  0  0
   73.6058   40.8212   37.8653 C   0  0  2  0  0  0  0  0  0  0  0  0
   74.0336   42.0622   37.0824 C   0  0  0  0  0  0  0  0  0  0  0  0
   75.2016   42.3379   36.8464 O   0  0  0  0  0  0  0  0  0  0  0  0
   73.0105   42.8396   36.5898 N   0  0  0  0  0  0  0  0  0  0  0  0
   71.6555   42.6881   36.7633 C   0  0  0  0  0  0  0  0  0  0  0  0
   70.8517   43.4816   36.2975 O   0  0  0  0  0  0  0  0  0  0  0  0
   71.2243   41.4581   37.5240 C   0  0  0  0  0  0  0  0  0  0  0  0
   72.2650   41.0439   38.5524 C   0  0  0  0  0  0  0  0  0  0  0  0
   77.1361   41.8025   41.8642 H   0  0  0  0  0  0  0  0  0  0  0  0
   76.6876   37.0807   40.2703 H   0  0  0  0  0  0  0  0  0  0  0  0
   78.2607   37.6620   42.1165 H   0  0  0  0  0  0  0  0  0  0  0  0
   78.4634   39.9832   42.9093 H   0  0  0  0  0  0  0  0  0  0  0  0
   73.4909   40.0150   37.1317 H   0  0  0  0  0  0  0  0  0  0  0  0
   73.2925   43.6588   36.0690 H   0  0  0  0  0  0  0  0  0  0  0  0
   70.2760   41.6750   38.0243 H   0  0  0  0  0  0  0  0  0  0  0  0
   71.0494   40.6543   36.8014 H   0  0  0  0  0  0  0  0  0  0  0  0
   72.3538   41.8088   39.3309 H   0  0  0  0  0  0  0  0  0  0  0  0
   71.9400   40.1287   39.0579 H   0  0  0  0  0  0  0  0  0  0  0  0
  1 20  1  0  0  0  0
  1  2  1  0  0  0  0
  1 11  2  0  0  0  0
  2  3  1  0  0  0  0
  2  8  2  0  0  0  0
  3  4  2  0  0  0  0
  3  5  1  0  0  0  0
  5  6  1  0  0  0  0
 12  5  1  0  0  0  0
  6  7  2  0  0  0  0
  6  8  1  0  0  0  0
  8  9  1  0  0  0  0
  9 21  1  0  0  0  0
  9 10  2  0  0  0  0
 10 22  1  0  0  0  0
 10 11  1  0  0  0  0
 11 23  1  0  0  0  0
 12 24  1  0  0  0  0
 12 13  1  0  0  0  0
 12 19  1  0  0  0  0
 13 14  2  0  0  0  0
 13 15  1  0  0  0  0
 15 25  1  0  0  0  0
 15 16  1  0  0  0  0
 16 17  2  0  0  0  0
 16 18  1  0  0  0  0
 18 26  1  0  0  0  0
 18 27  1  0  0  0  0
 18 19  1  0  0  0  0
 19 28  1  0  0  0  0
 19 29  1  0  0  0  0
M  ZZC   1 c1
M  ZZC   2 c2
M  ZZC   3 c3
M  ZZC   4 o1
M  ZZC   5 n1
M  ZZC   6 c4
M  ZZC   7 o2
M  ZZC   8 c5
M  ZZC   9 c6
M  ZZC  10 c7
M  ZZC  11 c8
M  ZZC  12 c9
M  ZZC  13 c10
M  ZZC  14 o3
M  ZZC  15 n2
M  ZZC  16 c11
M  ZZC  17 o4
M  ZZC  18 c12
M  ZZC  19 c13
M  ZZC  20 h11
M  ZZC  21 h61
M  ZZC  22 h71
M  ZZC  23 h81
M  ZZC  24 h91
M  ZZC  25 h21
M  ZZC  26 h121
M  ZZC  27 h122
M  ZZC  28 h131
M  ZZC  29 h132
M  ZZM   1 37
M  ZZI   1 125
M  ZZM   2 37
M  ZZI   2 124
M  ZZM   3 3
M  ZZI   3 121
M  ZZM   4 7
M  ZZI   4 81
M  ZZM   5 10
M  ZZI   5 192
M  ZZM   6 3
M  ZZI   6 121
M  ZZM   7 7
M  ZZI   7 81
M  ZZM   8 37
M  ZZI   8 124
M  ZZM   9 37
M  ZZI   9 125
M  ZZM  10 37
M  ZZI  10 125
M  ZZM  11 37
M  ZZI  11 125
M  ZZM  12 1
M  ZZI  12 113
M  ZZM  13 3
M  ZZI  13 121
M  ZZM  14 7
M  ZZI  14 81
M  ZZM  15 10
M  ZZI  15 191
M  ZZM  16 3
M  ZZI  16 121
M  ZZM  17 7
M  ZZI  17 81
M  ZZM  18 1
M  ZZI  18 112
M  ZZM  19 1
M  ZZI  19 112
M  ZZM  20 5
M  ZZI  20 1
M  ZZM  21 5
M  ZZI  21 1
M  ZZM  22 5
M  ZZI  22 1
M  ZZM  23 5
M  ZZI  23 1
M  ZZM  24 5
M  ZZI  24 1
M  ZZM  25 28
M  ZZI  25 11
M  ZZM  26 5
M  ZZI  26 1
M  ZZM  27 5
M  ZZI  27 1
M  ZZM  28 5
M  ZZI  28 1
M  ZZM  29 5
M  ZZI  29 1
M  END
> <IX>
1

> <NAME>
Cereblon_6J3O_1.pdb

> <Score>
-17.662872

> <Natom>
29

> <Nflex>
1

> <Hbond>
-4.539854

> <Hphob>
-3.555299

> <VwInt>
-21.719728

> <Dsolv>
14.750663

> <SolEl>
7.421339

> <Eintl>
2.27276

> <RecConf>
ND

> <projPath>
Cereblon_maps/

> <NAME_>
Cereblon_6J3O_1.pdb

$$$$
