Cereblon_7NQ8_5.pdb
  MOLSOFT 04032206303D

 30 32  0  0  1  0  0  0  0  0999 V2000
   76.4941   37.9972   40.5434 C   0  0  0  0  0  0  0  0  0  0  0  0
   75.7684   39.0356   39.9845 C   0  0  0  0  0  0  0  0  0  0  0  0
   75.9845   40.3206   40.3997 C   0  0  0  0  0  0  0  0  0  0  0  0
   75.0858   41.1956   39.6450 C   0  0  0  0  0  0  0  0  0  0  0  0
   74.9573   42.3944   39.8343 O   0  0  0  0  0  0  0  0  0  0  0  0
   74.4400   40.4026   38.7165 N   0  0  0  0  0  0  0  0  0  0  0  0
   73.4057   40.8602   37.7820 C   0  0  2  0  0  0  0  0  0  0  0  0
   73.8561   42.1044   37.0089 C   0  0  0  0  0  0  0  0  0  0  0  0
   75.0257   42.3506   36.7496 O   0  0  0  0  0  0  0  0  0  0  0  0
   72.8511   42.9262   36.5497 N   0  0  0  0  0  0  0  0  0  0  0  0
   71.4959   42.8166   36.7457 C   0  0  0  0  0  0  0  0  0  0  0  0
   70.7096   43.6571   36.3349 O   0  0  0  0  0  0  0  0  0  0  0  0
   71.0418   41.5693   37.4599 C   0  0  0  0  0  0  0  0  0  0  0  0
   72.0696   41.0952   38.4739 C   0  0  0  0  0  0  0  0  0  0  0  0
   74.7002   38.9942   38.9490 C   0  0  0  0  0  0  0  0  0  0  0  0
   76.9102   40.6599   41.3705 C   0  0  0  0  0  0  0  0  0  0  0  0
   77.6348   39.6223   41.9371 C   0  0  0  0  0  0  0  0  0  0  0  0
   77.4313   38.3082   41.5228 C   0  0  0  0  0  0  0  0  0  0  0  0
   76.3362   36.9692   40.2315 H   0  0  0  0  0  0  0  0  0  0  0  0
   73.2887   40.0726   37.0287 H   0  0  0  0  0  0  0  0  0  0  0  0
   73.1548   43.7488   36.0467 H   0  0  0  0  0  0  0  0  0  0  0  0
   70.0996   41.7880   37.9669 H   0  0  0  0  0  0  0  0  0  0  0  0
   70.8503   40.7964   36.7086 H   0  0  0  0  0  0  0  0  0  0  0  0
   72.1786   41.8280   39.2795 H   0  0  0  0  0  0  0  0  0  0  0  0
   71.7196   40.1728   38.9487 H   0  0  0  0  0  0  0  0  0  0  0  0
   75.0149   38.5112   38.0214 H   0  0  0  0  0  0  0  0  0  0  0  0
   73.7926   38.5185   39.3381 H   0  0  0  0  0  0  0  0  0  0  0  0
   77.0722   41.6898   41.6729 H   0  0  0  0  0  0  0  0  0  0  0  0
   78.3661   39.8384   42.7101 H   0  0  0  0  0  0  0  0  0  0  0  0
   78.0098   37.5121   41.9809 H   0  0  0  0  0  0  0  0  0  0  0  0
  1 19  1  0  0  0  0
  1 18  2  0  0  0  0
  1  2  1  0  0  0  0
  2  3  2  0  0  0  0
  2 15  1  0  0  0  0
  3 16  1  0  0  0  0
  3  4  1  0  0  0  0
  4  6  1  0  0  0  0
  4  5  2  0  0  0  0
  6 15  1  0  0  0  0
  7  6  1  0  0  0  0
  7 20  1  0  0  0  0
  7  8  1  0  0  0  0
  7 14  1  0  0  0  0
  8  9  2  0  0  0  0
  8 10  1  0  0  0  0
 10 21  1  0  0  0  0
 10 11  1  0  0  0  0
 11 12  2  0  0  0  0
 11 13  1  0  0  0  0
 13 22  1  0  0  0  0
 13 23  1  0  0  0  0
 13 14  1  0  0  0  0
 14 24  1  0  0  0  0
 14 25  1  0  0  0  0
 15 26  1  0  0  0  0
 15 27  1  0  0  0  0
 16 17  2  0  0  0  0
 16 28  1  0  0  0  0
 17 18  1  0  0  0  0
 17 29  1  0  0  0  0
 18 30  1  0  0  0  0
M  ZZC   1 c1
M  ZZC   2 c2
M  ZZC   3 c3
M  ZZC   4 c4
M  ZZC   5 o1
M  ZZC   6 n1
M  ZZC   7 c5
M  ZZC   8 c6
M  ZZC   9 o2
M  ZZC  10 n2
M  ZZC  11 c7
M  ZZC  12 o3
M  ZZC  13 c8
M  ZZC  14 c9
M  ZZC  15 c10
M  ZZC  16 c11
M  ZZC  17 c12
M  ZZC  18 c13
M  ZZC  19 h11
M  ZZC  20 h51
M  ZZC  21 h21
M  ZZC  22 h81
M  ZZC  23 h82
M  ZZC  24 h91
M  ZZC  25 h92
M  ZZC  26 h101
M  ZZC  27 h102
M  ZZC  28 h111
M  ZZC  29 h121
M  ZZC  30 h131
M  ZZM   1 37
M  ZZI   1 125
M  ZZM   2 37
M  ZZI   2 124
M  ZZM   3 37
M  ZZI   3 124
M  ZZM   4 3
M  ZZI   4 121
M  ZZM   5 7
M  ZZI   5 81
M  ZZM   6 10
M  ZZI   6 192
M  ZZM   7 1
M  ZZI   7 113
M  ZZM   8 3
M  ZZI   8 121
M  ZZM   9 7
M  ZZI   9 81
M  ZZM  10 10
M  ZZI  10 191
M  ZZM  11 3
M  ZZI  11 121
M  ZZM  12 7
M  ZZI  12 81
M  ZZM  13 1
M  ZZI  13 112
M  ZZM  14 1
M  ZZI  14 112
M  ZZM  15 1
M  ZZI  15 112
M  ZZM  16 37
M  ZZI  16 125
M  ZZM  17 37
M  ZZI  17 125
M  ZZM  18 37
M  ZZI  18 125
M  ZZM  19 5
M  ZZI  19 1
M  ZZM  20 5
M  ZZI  20 1
M  ZZM  21 28
M  ZZI  21 11
M  ZZM  22 5
M  ZZI  22 1
M  ZZM  23 5
M  ZZI  23 1
M  ZZM  24 5
M  ZZI  24 1
M  ZZM  25 5
M  ZZI  25 1
M  ZZM  26 5
M  ZZI  26 1
M  ZZM  27 5
M  ZZI  27 1
M  ZZM  28 5
M  ZZI  28 1
M  ZZM  29 5
M  ZZI  29 1
M  ZZM  30 5
M  ZZI  30 1
M  END
> <IX>
1

> <NAME>
Cereblon_7NQ8_5.pdb

> <Score>
-17.251653

> <Natom>
30

> <Nflex>
1

> <Hbond>
-4.657267

> <Hphob>
-3.598794

> <VwInt>
-20.624684

> <Dsolv>
14.242642

> <SolEl>
6.12796

> <Eintl>
3.734453

> <RecConf>
ND

> <projPath>
Cereblon_maps/

> <NAME_>
Cereblon_7NQ8_5.pdb

$$$$
