Cereblon_5VBP_25.pdb
  MOLSOFT 04032206273D

 31 33  0  0  1  0  0  0  0  0999 V2000
   73.3989   41.6047   40.6984 O   0  0  0  0  0  0  0  0  0  0  0  0
   73.2252   41.3224   39.5253 C   0  0  0  0  0  0  0  0  0  0  0  0
   74.3655   41.0487   38.5542 C   0  0  2  0  0  0  0  0  0  0  0  0
   75.6123   41.5524   39.1583 N   0  0  0  0  0  0  0  0  0  0  0  0
   76.2292   40.9083   40.2147 C   0  0  0  0  0  0  0  0  0  0  0  0
   75.9834   39.8129   40.7001 O   0  0  0  0  0  0  0  0  0  0  0  0
   77.3017   41.7865   40.6754 C   0  0  0  0  0  0  0  0  0  0  0  0
   78.1430   41.6604   41.7718 C   0  0  0  0  0  0  0  0  0  0  0  0
   77.9937   40.6331   42.7189 N   0  0  0  0  0  0  0  0  0  0  0  0
   79.0660   42.6888   41.9532 C   0  0  0  0  0  0  0  0  0  0  0  0
   79.1738   43.7441   41.0454 C   0  0  0  0  0  0  0  0  0  0  0  0
   78.3249   43.8326   39.9494 C   0  0  0  0  0  0  0  0  0  0  0  0
   77.3824   42.8309   39.8057 C   0  0  0  0  0  0  0  0  0  0  0  0
   76.3449   42.6624   38.7884 C   0  0  0  0  0  0  0  0  0  0  0  0
   76.2460   43.3734   37.7999 O   0  0  0  0  0  0  0  0  0  0  0  0
   73.9409   41.6703   37.2234 C   0  0  0  0  0  0  0  0  0  0  0  0
   72.7029   40.9499   36.7040 C   0  0  0  0  0  0  0  0  0  0  0  0
   71.5835   40.9443   37.7246 C   0  0  0  0  0  0  0  0  0  0  0  0
   70.4225   40.7001   37.4344 O   0  0  0  0  0  0  0  0  0  0  0  0
   71.9570   41.1788   39.0224 N   0  0  0  0  0  0  0  0  0  0  0  0
   74.4599   39.9597   38.4680 H   0  0  0  0  0  0  0  0  0  0  0  0
   77.3618   39.8667   42.4834 H   0  0  0  0  0  0  0  0  0  0  0  0
   78.7744   40.4200   43.3383 H   0  0  0  0  0  0  0  0  0  0  0  0
   79.7207   42.6715   42.8190 H   0  0  0  0  0  0  0  0  0  0  0  0
   79.9154   44.5193   41.2118 H   0  0  0  0  0  0  0  0  0  0  0  0
   78.3870   44.6592   39.2500 H   0  0  0  0  0  0  0  0  0  0  0  0
   74.7377   41.6150   36.4805 H   0  0  0  0  0  0  0  0  0  0  0  0
   73.7116   42.7348   37.3524 H   0  0  0  0  0  0  0  0  0  0  0  0
   72.3431   41.4456   35.7966 H   0  0  0  0  0  0  0  0  0  0  0  0
   72.9385   39.9106   36.4515 H   0  0  0  0  0  0  0  0  0  0  0  0
   71.2038   41.2741   39.6911 H   0  0  0  0  0  0  0  0  0  0  0  0
  1  2  2  0  0  0  0
  3  2  1  0  0  0  0
  2 20  1  0  0  0  0
  3  4  1  0  0  0  0
  3 21  1  0  0  0  0
  3 16  1  0  0  0  0
  4  5  1  0  0  0  0
  4 14  1  0  0  0  0
  5  7  1  0  0  0  0
  5  6  2  0  0  0  0
  7  8  1  0  0  0  0
  7 13  2  0  0  0  0
  8 10  2  0  0  0  0
  8  9  1  0  0  0  0
  9 22  1  0  0  0  0
  9 23  1  0  0  0  0
 10 24  1  0  0  0  0
 10 11  1  0  0  0  0
 11 12  2  0  0  0  0
 11 25  1  0  0  0  0
 12 13  1  0  0  0  0
 12 26  1  0  0  0  0
 13 14  1  0  0  0  0
 14 15  2  0  0  0  0
 16 17  1  0  0  0  0
 16 27  1  0  0  0  0
 16 28  1  0  0  0  0
 17 18  1  0  0  0  0
 17 29  1  0  0  0  0
 17 30  1  0  0  0  0
 18 20  1  0  0  0  0
 18 19  2  0  0  0  0
 20 31  1  0  0  0  0
M  ZZC   1 o1
M  ZZC   2 c1
M  ZZC   3 c2
M  ZZC   4 n1
M  ZZC   5 c3
M  ZZC   6 o2
M  ZZC   7 c4
M  ZZC   8 c5
M  ZZC   9 n2
M  ZZC  10 c6
M  ZZC  11 c7
M  ZZC  12 c8
M  ZZC  13 c9
M  ZZC  14 c10
M  ZZC  15 o3
M  ZZC  16 c11
M  ZZC  17 c12
M  ZZC  18 c13
M  ZZC  19 o4
M  ZZC  20 n3
M  ZZC  21 h21
M  ZZC  22 h01
M  ZZC  23 h22
M  ZZC  24 h61
M  ZZC  25 h71
M  ZZC  26 h81
M  ZZC  27 h111
M  ZZC  28 h112
M  ZZC  29 h121
M  ZZC  30 h122
M  ZZC  31 h31
M  ZZM   1 7
M  ZZI   1 81
M  ZZM   2 3
M  ZZI   2 121
M  ZZM   3 1
M  ZZI   3 113
M  ZZM   4 10
M  ZZI   4 192
M  ZZM   5 3
M  ZZI   5 121
M  ZZM   6 7
M  ZZI   6 81
M  ZZM   7 37
M  ZZI   7 124
M  ZZM   8 37
M  ZZI   8 124
M  ZZM   9 40
M  ZZI   9 224
M  ZZM  10 37
M  ZZI  10 125
M  ZZM  11 37
M  ZZI  11 125
M  ZZM  12 37
M  ZZI  12 125
M  ZZM  13 37
M  ZZI  13 124
M  ZZM  14 3
M  ZZI  14 121
M  ZZM  15 7
M  ZZI  15 81
M  ZZM  16 1
M  ZZI  16 112
M  ZZM  17 1
M  ZZI  17 112
M  ZZM  18 3
M  ZZI  18 121
M  ZZM  19 7
M  ZZI  19 81
M  ZZM  20 10
M  ZZI  20 191
M  ZZM  21 5
M  ZZI  21 1
M  ZZM  22 28
M  ZZI  22 11
M  ZZM  23 28
M  ZZI  23 11
M  ZZM  24 5
M  ZZI  24 1
M  ZZM  25 5
M  ZZI  25 1
M  ZZM  26 5
M  ZZI  26 1
M  ZZM  27 5
M  ZZI  27 1
M  ZZM  28 5
M  ZZI  28 1
M  ZZM  29 5
M  ZZI  29 1
M  ZZM  30 5
M  ZZI  30 1
M  ZZM  31 28
M  ZZI  31 11
M  END
> <IX>
1

> <NAME>
Cereblon_5VBP_25.pdb

> <Score>
-14.986696

> <Natom>
31

> <Nflex>
1

> <Hbond>
-2.804938

> <Hphob>
-3.743147

> <VwInt>
-26.99208

> <Dsolv>
16.744142

> <SolEl>
7.559424

> <Eintl>
5.770766

> <RecConf>
ND

> <projPath>
Cereblon_maps/

> <NAME_>
Cereblon_5VBP_25.pdb

$$$$
