Cereblon_5L2S_5.pdb
  MOLSOFT 04032206253D

 31 33  0  0  1  0  0  0  0  0999 V2000
   77.6265   41.8874   41.9083 N   0  0  0  0  0  0  0  0  0  0  0  0
   77.2749   40.5800   41.5383 C   0  0  0  0  0  0  0  0  0  0  0  0
   76.3427   40.2933   40.5482 C   0  0  0  0  0  0  0  0  0  0  0  0
   75.4346   41.1702   39.8014 C   0  0  0  0  0  0  0  0  0  0  0  0
   75.2838   42.3615   40.0223 O   0  0  0  0  0  0  0  0  0  0  0  0
   74.7847   40.3753   38.8832 N   0  0  0  0  0  0  0  0  0  0  0  0
   75.0940   39.0492   39.0794 C   0  0  0  0  0  0  0  0  0  0  0  0
   74.6252   38.0540   38.5468 O   0  0  0  0  0  0  0  0  0  0  0  0
   76.1133   39.0163   40.1257 C   0  0  0  0  0  0  0  0  0  0  0  0
   76.7718   37.9256   40.6602 C   0  0  0  0  0  0  0  0  0  0  0  0
   77.6937   38.1845   41.6637 C   0  0  0  0  0  0  0  0  0  0  0  0
   77.9391   39.4886   42.0894 C   0  0  0  0  0  0  0  0  0  0  0  0
   73.7454   40.8270   37.9546 C   0  0  2  0  0  0  0  0  0  0  0  0
   74.1764   42.0626   37.1672 C   0  0  0  0  0  0  0  0  0  0  0  0
   75.3446   42.3388   36.9335 O   0  0  0  0  0  0  0  0  0  0  0  0
   73.1499   42.8286   36.6639 N   0  0  0  0  0  0  0  0  0  0  0  0
   71.7942   42.6460   36.8008 C   0  0  0  0  0  0  0  0  0  0  0  0
   70.9862   43.3864   36.2615 O   0  0  0  0  0  0  0  0  0  0  0  0
   71.3662   41.4481   37.6154 C   0  0  0  0  0  0  0  0  0  0  0  0
   72.4141   41.0652   38.6504 C   0  0  0  0  0  0  0  0  0  0  0  0
   78.1705   42.0367   42.7556 H   0  0  0  0  0  0  0  0  0  0  0  0
   77.1053   42.6779   41.5270 H   0  0  0  0  0  0  0  0  0  0  0  0
   76.5802   36.9148   40.3121 H   0  0  0  0  0  0  0  0  0  0  0  0
   78.2357   37.3612   42.1190 H   0  0  0  0  0  0  0  0  0  0  0  0
   78.6741   39.6530   42.8709 H   0  0  0  0  0  0  0  0  0  0  0  0
   73.6084   40.0308   37.2136 H   0  0  0  0  0  0  0  0  0  0  0  0
   73.4236   43.6344   36.1186 H   0  0  0  0  0  0  0  0  0  0  0  0
   70.4246   41.6894   38.1172 H   0  0  0  0  0  0  0  0  0  0  0  0
   71.1778   40.6183   36.9263 H   0  0  0  0  0  0  0  0  0  0  0  0
   72.5119   41.8490   39.4082 H   0  0  0  0  0  0  0  0  0  0  0  0
   72.0915   40.1635   39.1813 H   0  0  0  0  0  0  0  0  0  0  0  0
  1  2  1  0  0  0  0
  1 21  1  0  0  0  0
  1 22  1  0  0  0  0
  2  3  1  0  0  0  0
  2 12  2  0  0  0  0
  3  9  2  0  0  0  0
  3  4  1  0  0  0  0
  4  5  2  0  0  0  0
  4  6  1  0  0  0  0
  6  7  1  0  0  0  0
 13  6  1  0  0  0  0
  7  8  2  0  0  0  0
  7  9  1  0  0  0  0
  9 10  1  0  0  0  0
 10 23  1  0  0  0  0
 10 11  2  0  0  0  0
 11 12  1  0  0  0  0
 11 24  1  0  0  0  0
 12 25  1  0  0  0  0
 13 26  1  0  0  0  0
 13 14  1  0  0  0  0
 13 20  1  0  0  0  0
 14 15  2  0  0  0  0
 14 16  1  0  0  0  0
 16 27  1  0  0  0  0
 16 17  1  0  0  0  0
 17 18  2  0  0  0  0
 17 19  1  0  0  0  0
 19 28  1  0  0  0  0
 19 29  1  0  0  0  0
 19 20  1  0  0  0  0
 20 30  1  0  0  0  0
 20 31  1  0  0  0  0
M  ZZC   1 n1
M  ZZC   2 c1
M  ZZC   3 c2
M  ZZC   4 c3
M  ZZC   5 o1
M  ZZC   6 n2
M  ZZC   7 c4
M  ZZC   8 o2
M  ZZC   9 c5
M  ZZC  10 c6
M  ZZC  11 c7
M  ZZC  12 c8
M  ZZC  13 c9
M  ZZC  14 c10
M  ZZC  15 o3
M  ZZC  16 n3
M  ZZC  17 c11
M  ZZC  18 o4
M  ZZC  19 c12
M  ZZC  20 c13
M  ZZC  21 h11
M  ZZC  22 h12
M  ZZC  23 h61
M  ZZC  24 h71
M  ZZC  25 h81
M  ZZC  26 h91
M  ZZC  27 h31
M  ZZC  28 h121
M  ZZC  29 h122
M  ZZC  30 h131
M  ZZC  31 h132
M  ZZM   1 40
M  ZZI   1 224
M  ZZM   2 37
M  ZZI   2 124
M  ZZM   3 37
M  ZZI   3 124
M  ZZM   4 3
M  ZZI   4 121
M  ZZM   5 7
M  ZZI   5 81
M  ZZM   6 10
M  ZZI   6 192
M  ZZM   7 3
M  ZZI   7 121
M  ZZM   8 7
M  ZZI   8 81
M  ZZM   9 37
M  ZZI   9 124
M  ZZM  10 37
M  ZZI  10 125
M  ZZM  11 37
M  ZZI  11 125
M  ZZM  12 37
M  ZZI  12 125
M  ZZM  13 1
M  ZZI  13 113
M  ZZM  14 3
M  ZZI  14 121
M  ZZM  15 7
M  ZZI  15 81
M  ZZM  16 10
M  ZZI  16 191
M  ZZM  17 3
M  ZZI  17 121
M  ZZM  18 7
M  ZZI  18 81
M  ZZM  19 1
M  ZZI  19 112
M  ZZM  20 1
M  ZZI  20 112
M  ZZM  21 28
M  ZZI  21 11
M  ZZM  22 28
M  ZZI  22 11
M  ZZM  23 5
M  ZZI  23 1
M  ZZM  24 5
M  ZZI  24 1
M  ZZM  25 5
M  ZZI  25 1
M  ZZM  26 5
M  ZZI  26 1
M  ZZM  27 28
M  ZZI  27 11
M  ZZM  28 5
M  ZZI  28 1
M  ZZM  29 5
M  ZZI  29 1
M  ZZM  30 5
M  ZZI  30 1
M  ZZM  31 5
M  ZZI  31 1
M  END
> <IX>
1

> <NAME>
Cereblon_5L2S_5.pdb

> <Score>
-15.150907

> <Natom>
31

> <Nflex>
1

> <Hbond>
-4.140211

> <Hphob>
-3.484272

> <VwInt>
-23.356903

> <Dsolv>
17.397768

> <SolEl>
8.230451

> <Eintl>
3.224616

> <RecConf>
ND

> <projPath>
Cereblon_maps/

> <NAME_>
Cereblon_5L2S_5.pdb

$$$$
