Cereblon_5J8O_21.pdb
  MOLSOFT 04032206253D

 29 31  0  0  1  0  0  0  0  0999 V2000
   79.0008   42.4877   42.6738 C   0  0  0  0  0  0  0  0  0  0  0  0
   78.1837   42.1930   41.5969 C   0  0  0  0  0  0  0  0  0  0  0  0
   77.2657   41.0755   41.4104 C   0  0  0  0  0  0  0  0  0  0  0  0
   77.0845   40.2144   42.2575 O   0  0  0  0  0  0  0  0  0  0  0  0
   76.7252   41.2189   40.1455 N   0  0  0  0  0  0  0  0  0  0  0  0
   77.2221   42.3465   39.5233 C   0  0  0  0  0  0  0  0  0  0  0  0
   76.9874   42.7656   38.3973 O   0  0  0  0  0  0  0  0  0  0  0  0
   78.1573   42.9565   40.4690 C   0  0  0  0  0  0  0  0  0  0  0  0
   78.9564   44.0728   40.3278 C   0  0  0  0  0  0  0  0  0  0  0  0
   79.7980   44.3817   41.3903 C   0  0  0  0  0  0  0  0  0  0  0  0
   79.8206   43.6031   42.5484 C   0  0  0  0  0  0  0  0  0  0  0  0
   75.7171   40.3650   39.5122 C   0  0  2  0  0  0  0  0  0  0  0  0
   74.3371   40.9336   39.8008 C   0  0  0  0  0  0  0  0  0  0  0  0
   74.1497   42.1196   40.0160 O   0  0  0  0  0  0  0  0  0  0  0  0
   73.2869   40.0518   39.7251 N   0  0  0  0  0  0  0  0  0  0  0  0
   73.3251   38.7065   39.4526 C   0  0  0  0  0  0  0  0  0  0  0  0
   72.3092   38.0333   39.3943 O   0  0  0  0  0  0  0  0  0  0  0  0
   74.6897   38.1249   39.1757 C   0  0  0  0  0  0  0  0  0  0  0  0
   75.7715   38.8948   39.9127 C   0  0  0  0  0  0  0  0  0  0  0  0
   79.0107   41.8721   43.5689 H   0  0  0  0  0  0  0  0  0  0  0  0
   78.9264   44.6741   39.4266 H   0  0  0  0  0  0  0  0  0  0  0  0
   80.4469   45.2473   41.3216 H   0  0  0  0  0  0  0  0  0  0  0  0
   80.4874   43.8705   43.3633 H   0  0  0  0  0  0  0  0  0  0  0  0
   75.8560   40.4537   38.4325 H   0  0  0  0  0  0  0  0  0  0  0  0
   72.3685   40.4454   39.8883 H   0  0  0  0  0  0  0  0  0  0  0  0
   74.6957   37.0791   39.4993 H   0  0  0  0  0  0  0  0  0  0  0  0
   74.8513   38.1480   38.0936 H   0  0  0  0  0  0  0  0  0  0  0  0
   76.7571   38.4736   39.6887 H   0  0  0  0  0  0  0  0  0  0  0  0
   75.6089   38.7746   40.9874 H   0  0  0  0  0  0  0  0  0  0  0  0
  1 20  1  0  0  0  0
  1  2  1  0  0  0  0
  1 11  2  0  0  0  0
  2  3  1  0  0  0  0
  2  8  2  0  0  0  0
  3  4  2  0  0  0  0
  3  5  1  0  0  0  0
  5  6  1  0  0  0  0
 12  5  1  0  0  0  0
  6  7  2  0  0  0  0
  6  8  1  0  0  0  0
  8  9  1  0  0  0  0
  9 21  1  0  0  0  0
  9 10  2  0  0  0  0
 10 22  1  0  0  0  0
 10 11  1  0  0  0  0
 11 23  1  0  0  0  0
 12 24  1  0  0  0  0
 12 13  1  0  0  0  0
 12 19  1  0  0  0  0
 13 14  2  0  0  0  0
 13 15  1  0  0  0  0
 15 25  1  0  0  0  0
 15 16  1  0  0  0  0
 16 17  2  0  0  0  0
 16 18  1  0  0  0  0
 18 26  1  0  0  0  0
 18 27  1  0  0  0  0
 18 19  1  0  0  0  0
 19 28  1  0  0  0  0
 19 29  1  0  0  0  0
M  ZZC   1 c1
M  ZZC   2 c2
M  ZZC   3 c3
M  ZZC   4 o1
M  ZZC   5 n1
M  ZZC   6 c4
M  ZZC   7 o2
M  ZZC   8 c5
M  ZZC   9 c6
M  ZZC  10 c7
M  ZZC  11 c8
M  ZZC  12 c9
M  ZZC  13 c10
M  ZZC  14 o3
M  ZZC  15 n2
M  ZZC  16 c11
M  ZZC  17 o4
M  ZZC  18 c12
M  ZZC  19 c13
M  ZZC  20 h11
M  ZZC  21 h61
M  ZZC  22 h71
M  ZZC  23 h81
M  ZZC  24 h91
M  ZZC  25 h21
M  ZZC  26 h121
M  ZZC  27 h122
M  ZZC  28 h131
M  ZZC  29 h132
M  ZZM   1 37
M  ZZI   1 125
M  ZZM   2 37
M  ZZI   2 124
M  ZZM   3 3
M  ZZI   3 121
M  ZZM   4 7
M  ZZI   4 81
M  ZZM   5 10
M  ZZI   5 192
M  ZZM   6 3
M  ZZI   6 121
M  ZZM   7 7
M  ZZI   7 81
M  ZZM   8 37
M  ZZI   8 124
M  ZZM   9 37
M  ZZI   9 125
M  ZZM  10 37
M  ZZI  10 125
M  ZZM  11 37
M  ZZI  11 125
M  ZZM  12 1
M  ZZI  12 113
M  ZZM  13 3
M  ZZI  13 121
M  ZZM  14 7
M  ZZI  14 81
M  ZZM  15 10
M  ZZI  15 191
M  ZZM  16 3
M  ZZI  16 121
M  ZZM  17 7
M  ZZI  17 81
M  ZZM  18 1
M  ZZI  18 112
M  ZZM  19 1
M  ZZI  19 112
M  ZZM  20 5
M  ZZI  20 1
M  ZZM  21 5
M  ZZI  21 1
M  ZZM  22 5
M  ZZI  22 1
M  ZZM  23 5
M  ZZI  23 1
M  ZZM  24 5
M  ZZI  24 1
M  ZZM  25 28
M  ZZI  25 11
M  ZZM  26 5
M  ZZI  26 1
M  ZZM  27 5
M  ZZI  27 1
M  ZZM  28 5
M  ZZI  28 1
M  ZZM  29 5
M  ZZI  29 1
M  END
> <IX>
1

> <NAME>
Cereblon_5J8O_21.pdb

> <Score>
-19.365591

> <Natom>
29

> <Nflex>
1

> <Hbond>
-3.368332

> <Hphob>
-3.557706

> <VwInt>
-22.697632

> <Dsolv>
11.993101

> <SolEl>
5.68931

> <Eintl>
1.479689

> <RecConf>
ND

> <projPath>
Cereblon_maps/

> <NAME_>
Cereblon_5J8O_21.pdb

$$$$
