Cereblon_5G0J_18.pdb
  MOLSOFT 04032206243D

 31 33  0  0  1  0  0  0  0  0999 V2000
   81.6190   53.0836   19.6981 N   0  0  0  0  0  0  0  0  0  0  0  0
   81.9351   54.4476   19.7364 C   0  0  0  0  0  0  0  0  0  0  0  0
   81.2335   55.3429   20.5255 C   0  0  0  0  0  0  0  0  0  0  0  0
   80.0320   55.1286   21.3272 C   0  0  0  0  0  0  0  0  0  0  0  0
   79.4242   54.0694   21.3975 O   0  0  0  0  0  0  0  0  0  0  0  0
   79.7633   56.3292   21.9478 N   0  0  0  0  0  0  0  0  0  0  0  0
   80.6771   57.2952   21.5811 C   0  0  0  0  0  0  0  0  0  0  0  0
   80.7515   58.4710   21.9071 O   0  0  0  0  0  0  0  0  0  0  0  0
   81.6153   56.6423   20.6716 C   0  0  0  0  0  0  0  0  0  0  0  0
   82.7328   57.1556   20.0404 C   0  0  0  0  0  0  0  0  0  0  0  0
   83.4647   56.2745   19.2544 C   0  0  0  0  0  0  0  0  0  0  0  0
   83.0810   54.9388   19.1241 C   0  0  0  0  0  0  0  0  0  0  0  0
   78.6192   56.5136   22.8403 C   0  0  2  0  0  0  0  0  0  0  0  0
   77.4693   57.1895   22.1179 C   0  0  0  0  0  0  0  0  0  0  0  0
   77.3350   57.1821   20.9032 O   0  0  0  0  0  0  0  0  0  0  0  0
   76.5181   57.7382   22.9452 N   0  0  0  0  0  0  0  0  0  0  0  0
   76.4983   57.7895   24.3184 C   0  0  0  0  0  0  0  0  0  0  0  0
   75.5300   58.2092   24.9314 O   0  0  0  0  0  0  0  0  0  0  0  0
   77.7198   57.2485   25.0232 C   0  0  0  0  0  0  0  0  0  0  0  0
   78.9345   57.2876   24.1164 C   0  0  0  0  0  0  0  0  0  0  0  0
   82.0405   52.5329   18.9552 H   0  0  0  0  0  0  0  0  0  0  0  0
   80.6542   52.8461   19.9283 H   0  0  0  0  0  0  0  0  0  0  0  0
   83.0329   58.1919   20.1624 H   0  0  0  0  0  0  0  0  0  0  0  0
   84.3589   56.6252   18.7461 H   0  0  0  0  0  0  0  0  0  0  0  0
   83.6901   54.2663   18.5287 H   0  0  0  0  0  0  0  0  0  0  0  0
   78.2537   55.5164   23.1004 H   0  0  0  0  0  0  0  0  0  0  0  0
   75.7249   58.1578   22.4789 H   0  0  0  0  0  0  0  0  0  0  0  0
   77.9053   57.8467   25.9210 H   0  0  0  0  0  0  0  0  0  0  0  0
   77.5103   56.2225   25.3352 H   0  0  0  0  0  0  0  0  0  0  0  0
   79.1860   58.3301   23.8941 H   0  0  0  0  0  0  0  0  0  0  0  0
   79.7971   56.8548   24.6311 H   0  0  0  0  0  0  0  0  0  0  0  0
  1  2  1  0  0  0  0
  1 21  1  0  0  0  0
  1 22  1  0  0  0  0
  2  3  1  0  0  0  0
  2 12  2  0  0  0  0
  3  9  2  0  0  0  0
  3  4  1  0  0  0  0
  4  5  2  0  0  0  0
  4  6  1  0  0  0  0
  6  7  1  0  0  0  0
 13  6  1  0  0  0  0
  7  8  2  0  0  0  0
  7  9  1  0  0  0  0
  9 10  1  0  0  0  0
 10 23  1  0  0  0  0
 10 11  2  0  0  0  0
 11 12  1  0  0  0  0
 11 24  1  0  0  0  0
 12 25  1  0  0  0  0
 13 26  1  0  0  0  0
 13 14  1  0  0  0  0
 13 20  1  0  0  0  0
 14 15  2  0  0  0  0
 14 16  1  0  0  0  0
 16 27  1  0  0  0  0
 16 17  1  0  0  0  0
 17 18  2  0  0  0  0
 17 19  1  0  0  0  0
 19 28  1  0  0  0  0
 19 29  1  0  0  0  0
 19 20  1  0  0  0  0
 20 30  1  0  0  0  0
 20 31  1  0  0  0  0
M  ZZC   1 n1
M  ZZC   2 c1
M  ZZC   3 c2
M  ZZC   4 c3
M  ZZC   5 o1
M  ZZC   6 n2
M  ZZC   7 c4
M  ZZC   8 o2
M  ZZC   9 c5
M  ZZC  10 c6
M  ZZC  11 c7
M  ZZC  12 c8
M  ZZC  13 c9
M  ZZC  14 c10
M  ZZC  15 o3
M  ZZC  16 n3
M  ZZC  17 c11
M  ZZC  18 o4
M  ZZC  19 c12
M  ZZC  20 c13
M  ZZC  21 h11
M  ZZC  22 h12
M  ZZC  23 h61
M  ZZC  24 h71
M  ZZC  25 h81
M  ZZC  26 h91
M  ZZC  27 h31
M  ZZC  28 h121
M  ZZC  29 h122
M  ZZC  30 h131
M  ZZC  31 h132
M  ZZM   1 40
M  ZZI   1 224
M  ZZM   2 37
M  ZZI   2 124
M  ZZM   3 37
M  ZZI   3 124
M  ZZM   4 3
M  ZZI   4 121
M  ZZM   5 7
M  ZZI   5 81
M  ZZM   6 10
M  ZZI   6 192
M  ZZM   7 3
M  ZZI   7 121
M  ZZM   8 7
M  ZZI   8 81
M  ZZM   9 37
M  ZZI   9 124
M  ZZM  10 37
M  ZZI  10 125
M  ZZM  11 37
M  ZZI  11 125
M  ZZM  12 37
M  ZZI  12 125
M  ZZM  13 1
M  ZZI  13 113
M  ZZM  14 3
M  ZZI  14 121
M  ZZM  15 7
M  ZZI  15 81
M  ZZM  16 10
M  ZZI  16 191
M  ZZM  17 3
M  ZZI  17 121
M  ZZM  18 7
M  ZZI  18 81
M  ZZM  19 1
M  ZZI  19 112
M  ZZM  20 1
M  ZZI  20 112
M  ZZM  21 28
M  ZZI  21 11
M  ZZM  22 28
M  ZZI  22 11
M  ZZM  23 5
M  ZZI  23 1
M  ZZM  24 5
M  ZZI  24 1
M  ZZM  25 5
M  ZZI  25 1
M  ZZM  26 5
M  ZZI  26 1
M  ZZM  27 28
M  ZZI  27 11
M  ZZM  28 5
M  ZZI  28 1
M  ZZM  29 5
M  ZZI  29 1
M  ZZM  30 5
M  ZZI  30 1
M  ZZM  31 5
M  ZZI  31 1
M  END
> <IX>
1

> <NAME>
Cereblon_5G0J_18.pdb

> <Score>
-23.46424

> <Natom>
31

> <Nflex>
1

> <Hbond>
-4.545581

> <Hphob>
-3.357767

> <VwInt>
-24.627531

> <Dsolv>
13.922074

> <SolEl>
5.129514

> <Eintl>
0.810466

> <RecConf>
ND

> <projPath>
Cereblon_maps/

> <NAME_>
Cereblon_5G0J_18.pdb

$$$$
