Cereblon_6VS3_25.pdb
  MOLSOFT 04032206293D

 31 33  0  0  1  0  0  0  0  0999 V2000
   78.8151   41.6777   43.8072 N   0  0  0  0  0  0  0  0  0  0  0  0
   78.8945   42.4321   42.6268 C   0  0  0  0  0  0  0  0  0  0  0  0
   78.0923   42.1612   41.5312 C   0  0  0  0  0  0  0  0  0  0  0  0
   77.1701   41.0512   41.3262 C   0  0  0  0  0  0  0  0  0  0  0  0
   76.9917   40.1695   42.1534 O   0  0  0  0  0  0  0  0  0  0  0  0
   76.6318   41.2176   40.0660 N   0  0  0  0  0  0  0  0  0  0  0  0
   77.1581   42.3335   39.4478 C   0  0  0  0  0  0  0  0  0  0  0  0
   76.9526   42.7496   38.3150 O   0  0  0  0  0  0  0  0  0  0  0  0
   78.0903   42.9293   40.4060 C   0  0  0  0  0  0  0  0  0  0  0  0
   78.9060   44.0351   40.2818 C   0  0  0  0  0  0  0  0  0  0  0  0
   79.7314   44.3297   41.3611 C   0  0  0  0  0  0  0  0  0  0  0  0
   79.7153   43.5510   42.5201 C   0  0  0  0  0  0  0  0  0  0  0  0
   75.6150   40.3778   39.4295 C   0  0  2  0  0  0  0  0  0  0  0  0
   74.2435   40.9579   39.7272 C   0  0  0  0  0  0  0  0  0  0  0  0
   74.0732   42.1372   39.9882 O   0  0  0  0  0  0  0  0  0  0  0  0
   73.1825   40.0949   39.6017 N   0  0  0  0  0  0  0  0  0  0  0  0
   73.2080   38.7573   39.2887 C   0  0  0  0  0  0  0  0  0  0  0  0
   72.1828   38.1076   39.1644 O   0  0  0  0  0  0  0  0  0  0  0  0
   74.5730   38.1524   39.0578 C   0  0  0  0  0  0  0  0  0  0  0  0
   75.6462   38.9058   39.8246 C   0  0  0  0  0  0  0  0  0  0  0  0
   79.5407   41.7660   44.5156 H   0  0  0  0  0  0  0  0  0  0  0  0
   78.2619   40.8190   43.7968 H   0  0  0  0  0  0  0  0  0  0  0  0
   78.9003   44.6408   39.3834 H   0  0  0  0  0  0  0  0  0  0  0  0
   80.3887   45.1907   41.3109 H   0  0  0  0  0  0  0  0  0  0  0  0
   80.3559   43.8275   43.3519 H   0  0  0  0  0  0  0  0  0  0  0  0
   75.7523   40.4720   38.3510 H   0  0  0  0  0  0  0  0  0  0  0  0
   72.2664   40.4983   39.7538 H   0  0  0  0  0  0  0  0  0  0  0  0
   74.5513   37.1075   39.3834 H   0  0  0  0  0  0  0  0  0  0  0  0
   74.7723   38.1675   37.9818 H   0  0  0  0  0  0  0  0  0  0  0  0
   76.6323   38.4751   39.6229 H   0  0  0  0  0  0  0  0  0  0  0  0
   75.4573   38.7788   40.8945 H   0  0  0  0  0  0  0  0  0  0  0  0
  1  2  1  0  0  0  0
  1 21  1  0  0  0  0
  1 22  1  0  0  0  0
  2  3  1  0  0  0  0
  2 12  2  0  0  0  0
  3  9  2  0  0  0  0
  3  4  1  0  0  0  0
  4  5  2  0  0  0  0
  4  6  1  0  0  0  0
  6  7  1  0  0  0  0
 13  6  1  0  0  0  0
  7  8  2  0  0  0  0
  7  9  1  0  0  0  0
  9 10  1  0  0  0  0
 10 23  1  0  0  0  0
 10 11  2  0  0  0  0
 11 12  1  0  0  0  0
 11 24  1  0  0  0  0
 12 25  1  0  0  0  0
 13 26  1  0  0  0  0
 13 14  1  0  0  0  0
 13 20  1  0  0  0  0
 14 15  2  0  0  0  0
 14 16  1  0  0  0  0
 16 27  1  0  0  0  0
 16 17  1  0  0  0  0
 17 18  2  0  0  0  0
 17 19  1  0  0  0  0
 19 28  1  0  0  0  0
 19 29  1  0  0  0  0
 19 20  1  0  0  0  0
 20 30  1  0  0  0  0
 20 31  1  0  0  0  0
M  ZZC   1 n1
M  ZZC   2 c1
M  ZZC   3 c2
M  ZZC   4 c3
M  ZZC   5 o1
M  ZZC   6 n2
M  ZZC   7 c4
M  ZZC   8 o2
M  ZZC   9 c5
M  ZZC  10 c6
M  ZZC  11 c7
M  ZZC  12 c8
M  ZZC  13 c9
M  ZZC  14 c10
M  ZZC  15 o3
M  ZZC  16 n3
M  ZZC  17 c11
M  ZZC  18 o4
M  ZZC  19 c12
M  ZZC  20 c13
M  ZZC  21 h11
M  ZZC  22 h12
M  ZZC  23 h61
M  ZZC  24 h71
M  ZZC  25 h81
M  ZZC  26 h91
M  ZZC  27 h31
M  ZZC  28 h121
M  ZZC  29 h122
M  ZZC  30 h131
M  ZZC  31 h132
M  ZZM   1 40
M  ZZI   1 224
M  ZZM   2 37
M  ZZI   2 124
M  ZZM   3 37
M  ZZI   3 124
M  ZZM   4 3
M  ZZI   4 121
M  ZZM   5 7
M  ZZI   5 81
M  ZZM   6 10
M  ZZI   6 192
M  ZZM   7 3
M  ZZI   7 121
M  ZZM   8 7
M  ZZI   8 81
M  ZZM   9 37
M  ZZI   9 124
M  ZZM  10 37
M  ZZI  10 125
M  ZZM  11 37
M  ZZI  11 125
M  ZZM  12 37
M  ZZI  12 125
M  ZZM  13 1
M  ZZI  13 113
M  ZZM  14 3
M  ZZI  14 121
M  ZZM  15 7
M  ZZI  15 81
M  ZZM  16 10
M  ZZI  16 191
M  ZZM  17 3
M  ZZI  17 121
M  ZZM  18 7
M  ZZI  18 81
M  ZZM  19 1
M  ZZI  19 112
M  ZZM  20 1
M  ZZI  20 112
M  ZZM  21 28
M  ZZI  21 11
M  ZZM  22 28
M  ZZI  22 11
M  ZZM  23 5
M  ZZI  23 1
M  ZZM  24 5
M  ZZI  24 1
M  ZZM  25 5
M  ZZI  25 1
M  ZZM  26 5
M  ZZI  26 1
M  ZZM  27 28
M  ZZI  27 11
M  ZZM  28 5
M  ZZI  28 1
M  ZZM  29 5
M  ZZI  29 1
M  ZZM  30 5
M  ZZI  30 1
M  ZZM  31 5
M  ZZI  31 1
M  END
> <IX>
1

> <NAME>
Cereblon_6VS3_25.pdb

> <Score>
-18.584103

> <Natom>
31

> <Nflex>
1

> <Hbond>
-3.701432

> <Hphob>
-3.591958

> <VwInt>
-24.309788

> <Dsolv>
15.191064

> <SolEl>
6.731217

> <Eintl>
1.768365

> <RecConf>
ND

> <projPath>
Cereblon_maps/

> <NAME_>
Cereblon_6VS3_25.pdb

$$$$
