Cereblon_5L2I_19.pdb
  MOLSOFT 04032206253D

 31 33  0  0  1  0  0  0  0  0999 V2000
   78.8127   41.6780   43.8201 N   0  0  0  0  0  0  0  0  0  0  0  0
   78.9069   42.4225   42.6338 C   0  0  0  0  0  0  0  0  0  0  0  0
   78.1011   42.1578   41.5393 C   0  0  0  0  0  0  0  0  0  0  0  0
   77.1802   41.0474   41.3316 C   0  0  0  0  0  0  0  0  0  0  0  0
   76.9989   40.1646   42.1571 O   0  0  0  0  0  0  0  0  0  0  0  0
   76.6463   41.2116   40.0689 N   0  0  0  0  0  0  0  0  0  0  0  0
   77.1671   42.3328   39.4556 C   0  0  0  0  0  0  0  0  0  0  0  0
   76.9541   42.7561   38.3269 O   0  0  0  0  0  0  0  0  0  0  0  0
   78.0981   42.9279   40.4157 C   0  0  0  0  0  0  0  0  0  0  0  0
   78.9096   44.0374   40.2957 C   0  0  0  0  0  0  0  0  0  0  0  0
   79.7248   44.3372   41.3810 C   0  0  0  0  0  0  0  0  0  0  0  0
   79.7113   43.5540   42.5368 C   0  0  0  0  0  0  0  0  0  0  0  0
   75.6266   40.3756   39.4317 C   0  0  2  0  0  0  0  0  0  0  0  0
   74.2553   40.9546   39.7355 C   0  0  0  0  0  0  0  0  0  0  0  0
   74.0849   42.1348   39.9920 O   0  0  0  0  0  0  0  0  0  0  0  0
   73.1945   40.0896   39.6208 N   0  0  0  0  0  0  0  0  0  0  0  0
   73.2187   38.7516   39.3097 C   0  0  0  0  0  0  0  0  0  0  0  0
   72.1936   38.0990   39.2011 O   0  0  0  0  0  0  0  0  0  0  0  0
   74.5816   38.1518   39.0574 C   0  0  0  0  0  0  0  0  0  0  0  0
   75.6592   38.9011   39.8211 C   0  0  0  0  0  0  0  0  0  0  0  0
   79.5534   41.7606   44.5130 H   0  0  0  0  0  0  0  0  0  0  0  0
   78.3239   40.7825   43.7772 H   0  0  0  0  0  0  0  0  0  0  0  0
   78.9023   44.6456   39.3989 H   0  0  0  0  0  0  0  0  0  0  0  0
   80.3730   45.2051   41.3371 H   0  0  0  0  0  0  0  0  0  0  0  0
   80.3424   43.8361   43.3741 H   0  0  0  0  0  0  0  0  0  0  0  0
   75.7624   40.4753   38.3536 H   0  0  0  0  0  0  0  0  0  0  0  0
   72.2793   40.4919   39.7813 H   0  0  0  0  0  0  0  0  0  0  0  0
   74.5655   37.1043   39.3748 H   0  0  0  0  0  0  0  0  0  0  0  0
   74.7707   38.1768   37.9798 H   0  0  0  0  0  0  0  0  0  0  0  0
   75.4739   38.7735   40.8917 H   0  0  0  0  0  0  0  0  0  0  0  0
   76.6440   38.4695   39.6140 H   0  0  0  0  0  0  0  0  0  0  0  0
  1  2  1  0  0  0  0
  1 21  1  0  0  0  0
  1 22  1  0  0  0  0
  2  3  1  0  0  0  0
  2 12  2  0  0  0  0
  3  9  2  0  0  0  0
  3  4  1  0  0  0  0
  4  5  2  0  0  0  0
  4  6  1  0  0  0  0
  6  7  1  0  0  0  0
 13  6  1  0  0  0  0
  7  8  2  0  0  0  0
  7  9  1  0  0  0  0
  9 10  1  0  0  0  0
 10 23  1  0  0  0  0
 10 11  2  0  0  0  0
 11 12  1  0  0  0  0
 11 24  1  0  0  0  0
 12 25  1  0  0  0  0
 13 26  1  0  0  0  0
 13 14  1  0  0  0  0
 13 20  1  0  0  0  0
 14 15  2  0  0  0  0
 14 16  1  0  0  0  0
 16 27  1  0  0  0  0
 16 17  1  0  0  0  0
 17 18  2  0  0  0  0
 17 19  1  0  0  0  0
 19 28  1  0  0  0  0
 19 29  1  0  0  0  0
 19 20  1  0  0  0  0
 20 30  1  0  0  0  0
 20 31  1  0  0  0  0
M  ZZC   1 n1
M  ZZC   2 c1
M  ZZC   3 c2
M  ZZC   4 c3
M  ZZC   5 o1
M  ZZC   6 n2
M  ZZC   7 c4
M  ZZC   8 o2
M  ZZC   9 c5
M  ZZC  10 c6
M  ZZC  11 c7
M  ZZC  12 c8
M  ZZC  13 c9
M  ZZC  14 c10
M  ZZC  15 o3
M  ZZC  16 n3
M  ZZC  17 c11
M  ZZC  18 o4
M  ZZC  19 c12
M  ZZC  20 c13
M  ZZC  21 h11
M  ZZC  22 h12
M  ZZC  23 h61
M  ZZC  24 h71
M  ZZC  25 h81
M  ZZC  26 h91
M  ZZC  27 h31
M  ZZC  28 h121
M  ZZC  29 h122
M  ZZC  30 h131
M  ZZC  31 h132
M  ZZM   1 40
M  ZZI   1 224
M  ZZM   2 37
M  ZZI   2 124
M  ZZM   3 37
M  ZZI   3 124
M  ZZM   4 3
M  ZZI   4 121
M  ZZM   5 7
M  ZZI   5 81
M  ZZM   6 10
M  ZZI   6 192
M  ZZM   7 3
M  ZZI   7 121
M  ZZM   8 7
M  ZZI   8 81
M  ZZM   9 37
M  ZZI   9 124
M  ZZM  10 37
M  ZZI  10 125
M  ZZM  11 37
M  ZZI  11 125
M  ZZM  12 37
M  ZZI  12 125
M  ZZM  13 1
M  ZZI  13 113
M  ZZM  14 3
M  ZZI  14 121
M  ZZM  15 7
M  ZZI  15 81
M  ZZM  16 10
M  ZZI  16 191
M  ZZM  17 3
M  ZZI  17 121
M  ZZM  18 7
M  ZZI  18 81
M  ZZM  19 1
M  ZZI  19 112
M  ZZM  20 1
M  ZZI  20 112
M  ZZM  21 28
M  ZZI  21 11
M  ZZM  22 28
M  ZZI  22 11
M  ZZM  23 5
M  ZZI  23 1
M  ZZM  24 5
M  ZZI  24 1
M  ZZM  25 5
M  ZZI  25 1
M  ZZM  26 5
M  ZZI  26 1
M  ZZM  27 28
M  ZZI  27 11
M  ZZM  28 5
M  ZZI  28 1
M  ZZM  29 5
M  ZZI  29 1
M  ZZM  30 5
M  ZZI  30 1
M  ZZM  31 5
M  ZZI  31 1
M  END
> <IX>
1

> <NAME>
Cereblon_5L2I_19.pdb

> <Score>
-18.562837

> <Natom>
31

> <Nflex>
1

> <Hbond>
-3.707072

> <Hphob>
-3.60371

> <VwInt>
-24.203326

> <Dsolv>
15.112977

> <SolEl>
6.790317

> <Eintl>
1.695875

> <RecConf>
ND

> <projPath>
Cereblon_maps/

> <NAME_>
Cereblon_5L2I_19.pdb

$$$$
