Cereblon_1HWK_39.pdb
  MOLSOFT 04032206193D

 30 32  0  0  1  0  0  0  0  0999 V2000
   76.2100   43.0487   38.3238 C   0  0  0  0  0  0  0  0  0  0  0  0
   75.0530   42.3251   38.0895 C   0  0  0  0  0  0  0  0  0  0  0  0
   74.7256   41.2663   38.8823 C   0  0  0  0  0  0  0  0  0  0  0  0
   73.4759   40.6864   38.3840 C   0  0  0  0  0  0  0  0  0  0  0  0
   72.9917   39.6556   38.8270 O   0  0  0  0  0  0  0  0  0  0  0  0
   73.0410   41.4936   37.3421 N   0  0  0  0  0  0  0  0  0  0  0  0
   71.9700   41.0883   36.4099 C   0  0  1  0  0  0  0  0  0  0  0  0
   70.6058   41.0646   37.1022 C   0  0  0  0  0  0  0  0  0  0  0  0
   70.2033   40.1477   37.8018 O   0  0  0  0  0  0  0  0  0  0  0  0
   69.8000   42.1587   36.9247 N   0  0  0  0  0  0  0  0  0  0  0  0
   69.9802   43.2416   36.1199 C   0  0  0  0  0  0  0  0  0  0  0  0
   69.1359   44.1190   36.0816 O   0  0  0  0  0  0  0  0  0  0  0  0
   71.2634   43.3019   35.3467 C   0  0  0  0  0  0  0  0  0  0  0  0
   71.8451   41.9095   35.1229 C   0  0  0  0  0  0  0  0  0  0  0  0
   74.0392   42.5046   37.0255 C   0  0  0  0  0  0  0  0  0  0  0  0
   75.5125   40.8556   39.9425 C   0  0  0  0  0  0  0  0  0  0  0  0
   76.6598   41.5914   40.2002 C   0  0  0  0  0  0  0  0  0  0  0  0
   76.9983   42.6823   39.4056 C   0  0  0  0  0  0  0  0  0  0  0  0
   76.4961   43.8613   37.6621 H   0  0  0  0  0  0  0  0  0  0  0  0
   72.1946   40.0536   36.1279 H   0  0  0  0  0  0  0  0  0  0  0  0
   68.8991   42.1272   37.3847 H   0  0  0  0  0  0  0  0  0  0  0  0
   71.0545   43.7701   34.3811 H   0  0  0  0  0  0  0  0  0  0  0  0
   71.9431   43.9613   35.8882 H   0  0  0  0  0  0  0  0  0  0  0  0
   71.1773   41.3739   34.4385 H   0  0  0  0  0  0  0  0  0  0  0  0
   72.8021   41.9836   34.6018 H   0  0  0  0  0  0  0  0  0  0  0  0
   73.5952   43.4995   37.0710 H   0  0  0  0  0  0  0  0  0  0  0  0
   74.4807   42.3031   36.0459 H   0  0  0  0  0  0  0  0  0  0  0  0
   75.2482   39.9946   40.5458 H   0  0  0  0  0  0  0  0  0  0  0  0
   77.3008   41.3124   41.0307 H   0  0  0  0  0  0  0  0  0  0  0  0
   77.9050   43.2377   39.6240 H   0  0  0  0  0  0  0  0  0  0  0  0
  1 19  1  0  0  0  0
  1 18  2  0  0  0  0
  1  2  1  0  0  0  0
  2  3  2  0  0  0  0
  2 15  1  0  0  0  0
  3 16  1  0  0  0  0
  3  4  1  0  0  0  0
  4  6  1  0  0  0  0
  4  5  2  0  0  0  0
  6 15  1  0  0  0  0
  7  6  1  0  0  0  0
  7 20  1  0  0  0  0
  7  8  1  0  0  0  0
  7 14  1  0  0  0  0
  8  9  2  0  0  0  0
  8 10  1  0  0  0  0
 10 21  1  0  0  0  0
 10 11  1  0  0  0  0
 11 12  2  0  0  0  0
 11 13  1  0  0  0  0
 13 22  1  0  0  0  0
 13 23  1  0  0  0  0
 13 14  1  0  0  0  0
 14 24  1  0  0  0  0
 14 25  1  0  0  0  0
 15 26  1  0  0  0  0
 15 27  1  0  0  0  0
 16 17  2  0  0  0  0
 16 28  1  0  0  0  0
 17 18  1  0  0  0  0
 17 29  1  0  0  0  0
 18 30  1  0  0  0  0
M  ZZC   1 c1
M  ZZC   2 c2
M  ZZC   3 c3
M  ZZC   4 c4
M  ZZC   5 o1
M  ZZC   6 n1
M  ZZC   7 c5
M  ZZC   8 c6
M  ZZC   9 o2
M  ZZC  10 n2
M  ZZC  11 c7
M  ZZC  12 o3
M  ZZC  13 c8
M  ZZC  14 c9
M  ZZC  15 c10
M  ZZC  16 c11
M  ZZC  17 c12
M  ZZC  18 c13
M  ZZC  19 h11
M  ZZC  20 h51
M  ZZC  21 h21
M  ZZC  22 h81
M  ZZC  23 h82
M  ZZC  24 h91
M  ZZC  25 h92
M  ZZC  26 h101
M  ZZC  27 h102
M  ZZC  28 h111
M  ZZC  29 h121
M  ZZC  30 h131
M  ZZM   1 37
M  ZZI   1 125
M  ZZM   2 37
M  ZZI   2 124
M  ZZM   3 37
M  ZZI   3 124
M  ZZM   4 3
M  ZZI   4 121
M  ZZM   5 7
M  ZZI   5 81
M  ZZM   6 10
M  ZZI   6 192
M  ZZM   7 1
M  ZZI   7 113
M  ZZM   8 3
M  ZZI   8 121
M  ZZM   9 7
M  ZZI   9 81
M  ZZM  10 10
M  ZZI  10 191
M  ZZM  11 3
M  ZZI  11 121
M  ZZM  12 7
M  ZZI  12 81
M  ZZM  13 1
M  ZZI  13 112
M  ZZM  14 1
M  ZZI  14 112
M  ZZM  15 1
M  ZZI  15 112
M  ZZM  16 37
M  ZZI  16 125
M  ZZM  17 37
M  ZZI  17 125
M  ZZM  18 37
M  ZZI  18 125
M  ZZM  19 5
M  ZZI  19 1
M  ZZM  20 5
M  ZZI  20 1
M  ZZM  21 28
M  ZZI  21 11
M  ZZM  22 5
M  ZZI  22 1
M  ZZM  23 5
M  ZZI  23 1
M  ZZM  24 5
M  ZZI  24 1
M  ZZM  25 5
M  ZZI  25 1
M  ZZM  26 5
M  ZZI  26 1
M  ZZM  27 5
M  ZZI  27 1
M  ZZM  28 5
M  ZZI  28 1
M  ZZM  29 5
M  ZZI  29 1
M  ZZM  30 5
M  ZZI  30 1
M  END
> <IX>
1

> <NAME>
Cereblon_1HWK_39.pdb

> <Score>
-13.912385

> <Natom>
30

> <Nflex>
1

> <Hbond>
-4.487061

> <Hphob>
-3.889497

> <VwInt>
-21.213199

> <Dsolv>
12.345088

> <SolEl>
9.83027

> <Eintl>
8.187076

> <RecConf>
ND

> <projPath>
Cereblon_maps/

> <NAME_>
Cereblon_1HWK_39.pdb

$$$$
