Cereblon_5HZN_2.pdb
  MOLSOFT 04032206243D

 31 33  0  0  1  0  0  0  0  0999 V2000
   78.8168   41.6822   43.8082 N   0  0  0  0  0  0  0  0  0  0  0  0
   78.8991   42.4336   42.6263 C   0  0  0  0  0  0  0  0  0  0  0  0
   78.0963   42.1630   41.5312 C   0  0  0  0  0  0  0  0  0  0  0  0
   77.1753   41.0519   41.3267 C   0  0  0  0  0  0  0  0  0  0  0  0
   76.9919   40.1720   42.1547 O   0  0  0  0  0  0  0  0  0  0  0  0
   76.6408   41.2144   40.0639 N   0  0  0  0  0  0  0  0  0  0  0  0
   77.1626   42.3333   39.4471 C   0  0  0  0  0  0  0  0  0  0  0  0
   76.9514   42.7531   38.3167 O   0  0  0  0  0  0  0  0  0  0  0  0
   78.0941   42.9303   40.4059 C   0  0  0  0  0  0  0  0  0  0  0  0
   78.9066   44.0389   40.2831 C   0  0  0  0  0  0  0  0  0  0  0  0
   79.7254   44.3387   41.3657 C   0  0  0  0  0  0  0  0  0  0  0  0
   79.7124   43.5581   42.5232 C   0  0  0  0  0  0  0  0  0  0  0  0
   75.6213   40.3763   39.4292 C   0  0  2  0  0  0  0  0  0  0  0  0
   74.2501   40.9554   39.7327 C   0  0  0  0  0  0  0  0  0  0  0  0
   74.0803   42.1351   39.9918 O   0  0  0  0  0  0  0  0  0  0  0  0
   73.1889   40.0910   39.6144 N   0  0  0  0  0  0  0  0  0  0  0  0
   73.2136   38.7533   39.3013 C   0  0  0  0  0  0  0  0  0  0  0  0
   72.1885   38.1018   39.1859 O   0  0  0  0  0  0  0  0  0  0  0  0
   74.5774   38.1519   39.0572 C   0  0  0  0  0  0  0  0  0  0  0  0
   75.6537   38.9029   39.8213 C   0  0  0  0  0  0  0  0  0  0  0  0
   79.5327   41.7848   44.5245 H   0  0  0  0  0  0  0  0  0  0  0  0
   78.2833   40.8113   43.7913 H   0  0  0  0  0  0  0  0  0  0  0  0
   78.9005   44.6447   39.3847 H   0  0  0  0  0  0  0  0  0  0  0  0
   80.3769   45.2041   41.3176 H   0  0  0  0  0  0  0  0  0  0  0  0
   80.3486   43.8380   43.3574 H   0  0  0  0  0  0  0  0  0  0  0  0
   75.7558   40.4738   38.3506 H   0  0  0  0  0  0  0  0  0  0  0  0
   72.2734   40.4936   39.7721 H   0  0  0  0  0  0  0  0  0  0  0  0
   74.5599   37.1055   39.3780 H   0  0  0  0  0  0  0  0  0  0  0  0
   74.7699   38.1725   37.9800 H   0  0  0  0  0  0  0  0  0  0  0  0
   76.6386   38.4711   39.6163 H   0  0  0  0  0  0  0  0  0  0  0  0
   75.4677   38.7772   40.8919 H   0  0  0  0  0  0  0  0  0  0  0  0
  1  2  1  0  0  0  0
  1 21  1  0  0  0  0
  1 22  1  0  0  0  0
  2  3  1  0  0  0  0
  2 12  2  0  0  0  0
  3  9  2  0  0  0  0
  3  4  1  0  0  0  0
  4  5  2  0  0  0  0
  4  6  1  0  0  0  0
  6  7  1  0  0  0  0
 13  6  1  0  0  0  0
  7  8  2  0  0  0  0
  7  9  1  0  0  0  0
  9 10  1  0  0  0  0
 10 23  1  0  0  0  0
 10 11  2  0  0  0  0
 11 12  1  0  0  0  0
 11 24  1  0  0  0  0
 12 25  1  0  0  0  0
 13 26  1  0  0  0  0
 13 14  1  0  0  0  0
 13 20  1  0  0  0  0
 14 15  2  0  0  0  0
 14 16  1  0  0  0  0
 16 27  1  0  0  0  0
 16 17  1  0  0  0  0
 17 18  2  0  0  0  0
 17 19  1  0  0  0  0
 19 28  1  0  0  0  0
 19 29  1  0  0  0  0
 19 20  1  0  0  0  0
 20 30  1  0  0  0  0
 20 31  1  0  0  0  0
M  ZZC   1 n1
M  ZZC   2 c1
M  ZZC   3 c2
M  ZZC   4 c3
M  ZZC   5 o1
M  ZZC   6 n2
M  ZZC   7 c4
M  ZZC   8 o2
M  ZZC   9 c5
M  ZZC  10 c6
M  ZZC  11 c7
M  ZZC  12 c8
M  ZZC  13 c9
M  ZZC  14 c10
M  ZZC  15 o3
M  ZZC  16 n3
M  ZZC  17 c11
M  ZZC  18 o4
M  ZZC  19 c12
M  ZZC  20 c13
M  ZZC  21 h11
M  ZZC  22 h12
M  ZZC  23 h61
M  ZZC  24 h71
M  ZZC  25 h81
M  ZZC  26 h91
M  ZZC  27 h31
M  ZZC  28 h121
M  ZZC  29 h122
M  ZZC  30 h131
M  ZZC  31 h132
M  ZZM   1 40
M  ZZI   1 224
M  ZZM   2 37
M  ZZI   2 124
M  ZZM   3 37
M  ZZI   3 124
M  ZZM   4 3
M  ZZI   4 121
M  ZZM   5 7
M  ZZI   5 81
M  ZZM   6 10
M  ZZI   6 192
M  ZZM   7 3
M  ZZI   7 121
M  ZZM   8 7
M  ZZI   8 81
M  ZZM   9 37
M  ZZI   9 124
M  ZZM  10 37
M  ZZI  10 125
M  ZZM  11 37
M  ZZI  11 125
M  ZZM  12 37
M  ZZI  12 125
M  ZZM  13 1
M  ZZI  13 113
M  ZZM  14 3
M  ZZI  14 121
M  ZZM  15 7
M  ZZI  15 81
M  ZZM  16 10
M  ZZI  16 191
M  ZZM  17 3
M  ZZI  17 121
M  ZZM  18 7
M  ZZI  18 81
M  ZZM  19 1
M  ZZI  19 112
M  ZZM  20 1
M  ZZI  20 112
M  ZZM  21 28
M  ZZI  21 11
M  ZZM  22 28
M  ZZI  22 11
M  ZZM  23 5
M  ZZI  23 1
M  ZZM  24 5
M  ZZI  24 1
M  ZZM  25 5
M  ZZI  25 1
M  ZZM  26 5
M  ZZI  26 1
M  ZZM  27 28
M  ZZI  27 11
M  ZZM  28 5
M  ZZI  28 1
M  ZZM  29 5
M  ZZI  29 1
M  ZZM  30 5
M  ZZI  30 1
M  ZZM  31 5
M  ZZI  31 1
M  END
> <IX>
1

> <NAME>
Cereblon_5HZN_2.pdb

> <Score>
-18.845368

> <Natom>
31

> <Nflex>
1

> <Hbond>
-3.686969

> <Hphob>
-3.538696

> <VwInt>
-24.238488

> <Dsolv>
15.178183

> <SolEl>
6.216447

> <Eintl>
1.675977

> <RecConf>
ND

> <projPath>
Cereblon_maps/

> <NAME_>
Cereblon_5HZN_2.pdb

$$$$
