Cereblon_5LLI_8.pdb
  MOLSOFT 04032206263D

 31 33  0  0  1  0  0  0  0  0999 V2000
   78.0651   40.6332   42.6475 N   0  0  0  0  0  0  0  0  0  0  0  0
   78.1186   41.7226   41.7629 C   0  0  0  0  0  0  0  0  0  0  0  0
   77.2923   41.8167   40.6518 C   0  0  0  0  0  0  0  0  0  0  0  0
   76.2238   40.9279   40.2007 C   0  0  0  0  0  0  0  0  0  0  0  0
   75.9741   39.8415   40.7038 O   0  0  0  0  0  0  0  0  0  0  0  0
   75.6030   41.5586   39.1384 N   0  0  0  0  0  0  0  0  0  0  0  0
   76.3312   42.6668   38.7550 C   0  0  0  0  0  0  0  0  0  0  0  0
   76.2304   43.3649   37.7574 O   0  0  0  0  0  0  0  0  0  0  0  0
   77.3678   42.8515   39.7703 C   0  0  0  0  0  0  0  0  0  0  0  0
   78.3096   43.8558   39.8983 C   0  0  0  0  0  0  0  0  0  0  0  0
   79.1769   43.7711   40.9798 C   0  0  0  0  0  0  0  0  0  0  0  0
   79.0789   42.7234   41.8972 C   0  0  0  0  0  0  0  0  0  0  0  0
   74.3549   41.0456   38.5446 C   0  0  1  0  0  0  0  0  0  0  0  0
   73.2197   41.3223   39.5215 C   0  0  0  0  0  0  0  0  0  0  0  0
   73.4000   41.6100   40.6923 O   0  0  0  0  0  0  0  0  0  0  0  0
   71.9483   41.1748   39.0277 N   0  0  0  0  0  0  0  0  0  0  0  0
   71.5666   40.9323   37.7338 C   0  0  0  0  0  0  0  0  0  0  0  0
   70.4035   40.6868   37.4526 O   0  0  0  0  0  0  0  0  0  0  0  0
   72.6797   40.9313   36.7065 C   0  0  0  0  0  0  0  0  0  0  0  0
   73.9201   41.6573   37.2124 C   0  0  0  0  0  0  0  0  0  0  0  0
   78.6442   40.6217   43.4859 H   0  0  0  0  0  0  0  0  0  0  0  0
   77.2667   39.9988   42.5933 H   0  0  0  0  0  0  0  0  0  0  0  0
   78.3678   44.6731   39.1880 H   0  0  0  0  0  0  0  0  0  0  0  0
   79.9349   44.5355   41.1193 H   0  0  0  0  0  0  0  0  0  0  0  0
   79.7687   42.6930   42.7348 H   0  0  0  0  0  0  0  0  0  0  0  0
   74.4530   39.9564   38.4651 H   0  0  0  0  0  0  0  0  0  0  0  0
   71.1995   41.2731   39.7010 H   0  0  0  0  0  0  0  0  0  0  0  0
   72.9154   39.8904   36.4606 H   0  0  0  0  0  0  0  0  0  0  0  0
   72.3139   41.4196   35.7975 H   0  0  0  0  0  0  0  0  0  0  0  0
   73.6900   42.7223   37.3357 H   0  0  0  0  0  0  0  0  0  0  0  0
   74.7116   41.5982   36.4641 H   0  0  0  0  0  0  0  0  0  0  0  0
  1  2  1  0  0  0  0
  1 21  1  0  0  0  0
  1 22  1  0  0  0  0
  2  3  1  0  0  0  0
  2 12  2  0  0  0  0
  3  9  2  0  0  0  0
  3  4  1  0  0  0  0
  4  5  2  0  0  0  0
  4  6  1  0  0  0  0
  6  7  1  0  0  0  0
 13  6  1  0  0  0  0
  7  8  2  0  0  0  0
  7  9  1  0  0  0  0
  9 10  1  0  0  0  0
 10 23  1  0  0  0  0
 10 11  2  0  0  0  0
 11 12  1  0  0  0  0
 11 24  1  0  0  0  0
 12 25  1  0  0  0  0
 13 26  1  0  0  0  0
 13 14  1  0  0  0  0
 13 20  1  0  0  0  0
 14 15  2  0  0  0  0
 14 16  1  0  0  0  0
 16 27  1  0  0  0  0
 16 17  1  0  0  0  0
 17 18  2  0  0  0  0
 17 19  1  0  0  0  0
 19 28  1  0  0  0  0
 19 29  1  0  0  0  0
 19 20  1  0  0  0  0
 20 30  1  0  0  0  0
 20 31  1  0  0  0  0
M  ZZC   1 n1
M  ZZC   2 c1
M  ZZC   3 c2
M  ZZC   4 c3
M  ZZC   5 o1
M  ZZC   6 n2
M  ZZC   7 c4
M  ZZC   8 o2
M  ZZC   9 c5
M  ZZC  10 c6
M  ZZC  11 c7
M  ZZC  12 c8
M  ZZC  13 c9
M  ZZC  14 c10
M  ZZC  15 o3
M  ZZC  16 n3
M  ZZC  17 c11
M  ZZC  18 o4
M  ZZC  19 c12
M  ZZC  20 c13
M  ZZC  21 h11
M  ZZC  22 h12
M  ZZC  23 h61
M  ZZC  24 h71
M  ZZC  25 h81
M  ZZC  26 h91
M  ZZC  27 h31
M  ZZC  28 h121
M  ZZC  29 h122
M  ZZC  30 h131
M  ZZC  31 h132
M  ZZM   1 40
M  ZZI   1 224
M  ZZM   2 37
M  ZZI   2 124
M  ZZM   3 37
M  ZZI   3 124
M  ZZM   4 3
M  ZZI   4 121
M  ZZM   5 7
M  ZZI   5 81
M  ZZM   6 10
M  ZZI   6 192
M  ZZM   7 3
M  ZZI   7 121
M  ZZM   8 7
M  ZZI   8 81
M  ZZM   9 37
M  ZZI   9 124
M  ZZM  10 37
M  ZZI  10 125
M  ZZM  11 37
M  ZZI  11 125
M  ZZM  12 37
M  ZZI  12 125
M  ZZM  13 1
M  ZZI  13 113
M  ZZM  14 3
M  ZZI  14 121
M  ZZM  15 7
M  ZZI  15 81
M  ZZM  16 10
M  ZZI  16 191
M  ZZM  17 3
M  ZZI  17 121
M  ZZM  18 7
M  ZZI  18 81
M  ZZM  19 1
M  ZZI  19 112
M  ZZM  20 1
M  ZZI  20 112
M  ZZM  21 28
M  ZZI  21 11
M  ZZM  22 28
M  ZZI  22 11
M  ZZM  23 5
M  ZZI  23 1
M  ZZM  24 5
M  ZZI  24 1
M  ZZM  25 5
M  ZZI  25 1
M  ZZM  26 5
M  ZZI  26 1
M  ZZM  27 28
M  ZZI  27 11
M  ZZM  28 5
M  ZZI  28 1
M  ZZM  29 5
M  ZZI  29 1
M  ZZM  30 5
M  ZZI  30 1
M  ZZM  31 5
M  ZZI  31 1
M  END
> <IX>
1

> <NAME>
Cereblon_5LLI_8.pdb

> <Score>
-14.620073

> <Natom>
31

> <Nflex>
1

> <Hbond>
-2.773195

> <Hphob>
-3.708315

> <VwInt>
-27.034453

> <Dsolv>
17.264398

> <SolEl>
7.288254

> <Eintl>
5.927646

> <RecConf>
ND

> <projPath>
Cereblon_maps/

> <NAME_>
Cereblon_5LLI_8.pdb

$$$$
