Cereblon_5TRF_5.pdb
  MOLSOFT 04032206273D

 31 33  0  0  1  0  0  0  0  0999 V2000
   77.9940   40.6344   42.7178 N   0  0  0  0  0  0  0  0  0  0  0  0
   78.1432   41.6618   41.7708 C   0  0  0  0  0  0  0  0  0  0  0  0
   77.3016   41.7876   40.6745 C   0  0  0  0  0  0  0  0  0  0  0  0
   76.2293   40.9089   40.2141 C   0  0  0  0  0  0  0  0  0  0  0  0
   75.9837   39.8136   40.6999 O   0  0  0  0  0  0  0  0  0  0  0  0
   75.6122   41.5527   39.1575 N   0  0  0  0  0  0  0  0  0  0  0  0
   76.3444   42.6628   38.7875 C   0  0  0  0  0  0  0  0  0  0  0  0
   76.2451   43.3737   37.7988 O   0  0  0  0  0  0  0  0  0  0  0  0
   77.3821   42.8317   39.8045 C   0  0  0  0  0  0  0  0  0  0  0  0
   78.3245   43.8335   39.9479 C   0  0  0  0  0  0  0  0  0  0  0  0
   79.1740   43.7451   41.0435 C   0  0  0  0  0  0  0  0  0  0  0  0
   79.0664   42.6899   41.9516 C   0  0  0  0  0  0  0  0  0  0  0  0
   74.3653   41.0486   38.5539 C   0  0  1  0  0  0  0  0  0  0  0  0
   73.2252   41.3220   39.5254 C   0  0  0  0  0  0  0  0  0  0  0  0
   73.3993   41.6047   40.6984 O   0  0  0  0  0  0  0  0  0  0  0  0
   71.9569   41.1778   39.0230 N   0  0  0  0  0  0  0  0  0  0  0  0
   71.5830   40.9433   37.7253 C   0  0  0  0  0  0  0  0  0  0  0  0
   70.4218   40.6988   37.4355 O   0  0  0  0  0  0  0  0  0  0  0  0
   72.7019   40.9493   36.7043 C   0  0  0  0  0  0  0  0  0  0  0  0
   73.9400   41.6701   37.2233 C   0  0  0  0  0  0  0  0  0  0  0  0
   78.7746   40.4208   43.3373 H   0  0  0  0  0  0  0  0  0  0  0  0
   77.3615   39.8685   42.4826 H   0  0  0  0  0  0  0  0  0  0  0  0
   78.3869   44.6596   39.2480 H   0  0  0  0  0  0  0  0  0  0  0  0
   79.9158   44.5201   41.2093 H   0  0  0  0  0  0  0  0  0  0  0  0
   79.7216   42.6726   42.8170 H   0  0  0  0  0  0  0  0  0  0  0  0
   74.4600   39.9596   38.4676 H   0  0  0  0  0  0  0  0  0  0  0  0
   71.2040   41.2728   39.6921 H   0  0  0  0  0  0  0  0  0  0  0  0
   72.9379   39.9100   36.4520 H   0  0  0  0  0  0  0  0  0  0  0  0
   72.3418   41.4444   35.7967 H   0  0  0  0  0  0  0  0  0  0  0  0
   73.7103   42.7344   37.3523 H   0  0  0  0  0  0  0  0  0  0  0  0
   74.7365   41.6151   36.4800 H   0  0  0  0  0  0  0  0  0  0  0  0
  1  2  1  0  0  0  0
  1 21  1  0  0  0  0
  1 22  1  0  0  0  0
  2  3  1  0  0  0  0
  2 12  2  0  0  0  0
  3  9  2  0  0  0  0
  3  4  1  0  0  0  0
  4  5  2  0  0  0  0
  4  6  1  0  0  0  0
  6  7  1  0  0  0  0
 13  6  1  0  0  0  0
  7  8  2  0  0  0  0
  7  9  1  0  0  0  0
  9 10  1  0  0  0  0
 10 23  1  0  0  0  0
 10 11  2  0  0  0  0
 11 12  1  0  0  0  0
 11 24  1  0  0  0  0
 12 25  1  0  0  0  0
 13 26  1  0  0  0  0
 13 14  1  0  0  0  0
 13 20  1  0  0  0  0
 14 15  2  0  0  0  0
 14 16  1  0  0  0  0
 16 27  1  0  0  0  0
 16 17  1  0  0  0  0
 17 18  2  0  0  0  0
 17 19  1  0  0  0  0
 19 28  1  0  0  0  0
 19 29  1  0  0  0  0
 19 20  1  0  0  0  0
 20 30  1  0  0  0  0
 20 31  1  0  0  0  0
M  ZZC   1 n1
M  ZZC   2 c1
M  ZZC   3 c2
M  ZZC   4 c3
M  ZZC   5 o1
M  ZZC   6 n2
M  ZZC   7 c4
M  ZZC   8 o2
M  ZZC   9 c5
M  ZZC  10 c6
M  ZZC  11 c7
M  ZZC  12 c8
M  ZZC  13 c9
M  ZZC  14 c10
M  ZZC  15 o3
M  ZZC  16 n3
M  ZZC  17 c11
M  ZZC  18 o4
M  ZZC  19 c12
M  ZZC  20 c13
M  ZZC  21 h11
M  ZZC  22 h12
M  ZZC  23 h61
M  ZZC  24 h71
M  ZZC  25 h81
M  ZZC  26 h91
M  ZZC  27 h31
M  ZZC  28 h121
M  ZZC  29 h122
M  ZZC  30 h131
M  ZZC  31 h132
M  ZZM   1 40
M  ZZI   1 224
M  ZZM   2 37
M  ZZI   2 124
M  ZZM   3 37
M  ZZI   3 124
M  ZZM   4 3
M  ZZI   4 121
M  ZZM   5 7
M  ZZI   5 81
M  ZZM   6 10
M  ZZI   6 192
M  ZZM   7 3
M  ZZI   7 121
M  ZZM   8 7
M  ZZI   8 81
M  ZZM   9 37
M  ZZI   9 124
M  ZZM  10 37
M  ZZI  10 125
M  ZZM  11 37
M  ZZI  11 125
M  ZZM  12 37
M  ZZI  12 125
M  ZZM  13 1
M  ZZI  13 113
M  ZZM  14 3
M  ZZI  14 121
M  ZZM  15 7
M  ZZI  15 81
M  ZZM  16 10
M  ZZI  16 191
M  ZZM  17 3
M  ZZI  17 121
M  ZZM  18 7
M  ZZI  18 81
M  ZZM  19 1
M  ZZI  19 112
M  ZZM  20 1
M  ZZI  20 112
M  ZZM  21 28
M  ZZI  21 11
M  ZZM  22 28
M  ZZI  22 11
M  ZZM  23 5
M  ZZI  23 1
M  ZZM  24 5
M  ZZI  24 1
M  ZZM  25 5
M  ZZI  25 1
M  ZZM  26 5
M  ZZI  26 1
M  ZZM  27 28
M  ZZI  27 11
M  ZZM  28 5
M  ZZI  28 1
M  ZZM  29 5
M  ZZI  29 1
M  ZZM  30 5
M  ZZI  30 1
M  ZZM  31 5
M  ZZI  31 1
M  END
> <IX>
1

> <NAME>
Cereblon_5TRF_5.pdb

> <Score>
-15.115899

> <Natom>
31

> <Nflex>
1

> <Hbond>
-2.893765

> <Hphob>
-3.708103

> <VwInt>
-27.132623

> <Dsolv>
17.13923

> <SolEl>
7.51245

> <Eintl>
5.682899

> <RecConf>
ND

> <projPath>
Cereblon_maps/

> <NAME_>
Cereblon_5TRF_5.pdb

$$$$
