Cereblon_4IPF_6.pdb
  MOLSOFT 04032206223D

 30 32  0  0  1  0  0  0  0  0999 V2000
   78.9625   42.3514   42.8093 C   0  0  0  0  0  0  0  0  0  0  0  0
   78.1559   42.0579   41.7222 C   0  0  0  0  0  0  0  0  0  0  0  0
   78.1630   42.8637   40.6144 C   0  0  0  0  0  0  0  0  0  0  0  0
   77.2334   42.3027   39.6266 C   0  0  0  0  0  0  0  0  0  0  0  0
   77.0152   42.7690   38.5156 O   0  0  0  0  0  0  0  0  0  0  0  0
   76.7085   41.1584   40.1953 N   0  0  0  0  0  0  0  0  0  0  0  0
   75.6939   40.3313   39.5366 C   0  0  2  0  0  0  0  0  0  0  0  0
   74.3108   40.9163   39.7953 C   0  0  0  0  0  0  0  0  0  0  0  0
   74.1234   42.1044   40.0012 O   0  0  0  0  0  0  0  0  0  0  0  0
   73.2556   40.0413   39.7107 N   0  0  0  0  0  0  0  0  0  0  0  0
   73.2866   38.6918   39.4603 C   0  0  0  0  0  0  0  0  0  0  0  0
   72.2669   38.0248   39.4023 O   0  0  0  0  0  0  0  0  0  0  0  0
   74.6495   38.0958   39.2094 C   0  0  0  0  0  0  0  0  0  0  0  0
   75.7318   38.8642   39.9465 C   0  0  0  0  0  0  0  0  0  0  0  0
   77.2315   40.9129   41.5295 C   0  0  0  0  0  0  0  0  0  0  0  0
   78.9680   43.9808   40.5065 C   0  0  0  0  0  0  0  0  0  0  0  0
   79.7896   44.2722   41.5864 C   0  0  0  0  0  0  0  0  0  0  0  0
   79.7860   43.4679   42.7239 C   0  0  0  0  0  0  0  0  0  0  0  0
   78.9626   41.7258   43.6973 H   0  0  0  0  0  0  0  0  0  0  0  0
   75.8584   40.4207   38.4605 H   0  0  0  0  0  0  0  0  0  0  0  0
   72.3382   40.4448   39.8546 H   0  0  0  0  0  0  0  0  0  0  0  0
   74.6431   37.0544   39.5466 H   0  0  0  0  0  0  0  0  0  0  0  0
   74.8260   38.1019   38.1291 H   0  0  0  0  0  0  0  0  0  0  0  0
   75.5759   38.7603   41.0251 H   0  0  0  0  0  0  0  0  0  0  0  0
   76.7137   38.4328   39.7256 H   0  0  0  0  0  0  0  0  0  0  0  0
   77.7731   39.9611   41.5429 H   0  0  0  0  0  0  0  0  0  0  0  0
   76.4220   40.9140   42.2624 H   0  0  0  0  0  0  0  0  0  0  0  0
   78.9557   44.5992   39.6164 H   0  0  0  0  0  0  0  0  0  0  0  0
   80.4367   45.1410   41.5473 H   0  0  0  0  0  0  0  0  0  0  0  0
   80.4362   43.7171   43.5573 H   0  0  0  0  0  0  0  0  0  0  0  0
  1 19  1  0  0  0  0
  1 18  2  0  0  0  0
  1  2  1  0  0  0  0
  2  3  2  0  0  0  0
  2 15  1  0  0  0  0
  3 16  1  0  0  0  0
  3  4  1  0  0  0  0
  4  6  1  0  0  0  0
  4  5  2  0  0  0  0
  6 15  1  0  0  0  0
  7  6  1  0  0  0  0
  7 20  1  0  0  0  0
  7  8  1  0  0  0  0
  7 14  1  0  0  0  0
  8  9  2  0  0  0  0
  8 10  1  0  0  0  0
 10 21  1  0  0  0  0
 10 11  1  0  0  0  0
 11 12  2  0  0  0  0
 11 13  1  0  0  0  0
 13 22  1  0  0  0  0
 13 23  1  0  0  0  0
 13 14  1  0  0  0  0
 14 24  1  0  0  0  0
 14 25  1  0  0  0  0
 15 26  1  0  0  0  0
 15 27  1  0  0  0  0
 16 17  2  0  0  0  0
 16 28  1  0  0  0  0
 17 18  1  0  0  0  0
 17 29  1  0  0  0  0
 18 30  1  0  0  0  0
M  ZZC   1 c1
M  ZZC   2 c2
M  ZZC   3 c3
M  ZZC   4 c4
M  ZZC   5 o1
M  ZZC   6 n1
M  ZZC   7 c5
M  ZZC   8 c6
M  ZZC   9 o2
M  ZZC  10 n2
M  ZZC  11 c7
M  ZZC  12 o3
M  ZZC  13 c8
M  ZZC  14 c9
M  ZZC  15 c10
M  ZZC  16 c11
M  ZZC  17 c12
M  ZZC  18 c13
M  ZZC  19 h11
M  ZZC  20 h51
M  ZZC  21 h21
M  ZZC  22 h81
M  ZZC  23 h82
M  ZZC  24 h91
M  ZZC  25 h92
M  ZZC  26 h101
M  ZZC  27 h102
M  ZZC  28 h111
M  ZZC  29 h121
M  ZZC  30 h131
M  ZZM   1 37
M  ZZI   1 125
M  ZZM   2 37
M  ZZI   2 124
M  ZZM   3 37
M  ZZI   3 124
M  ZZM   4 3
M  ZZI   4 121
M  ZZM   5 7
M  ZZI   5 81
M  ZZM   6 10
M  ZZI   6 192
M  ZZM   7 1
M  ZZI   7 113
M  ZZM   8 3
M  ZZI   8 121
M  ZZM   9 7
M  ZZI   9 81
M  ZZM  10 10
M  ZZI  10 191
M  ZZM  11 3
M  ZZI  11 121
M  ZZM  12 7
M  ZZI  12 81
M  ZZM  13 1
M  ZZI  13 112
M  ZZM  14 1
M  ZZI  14 112
M  ZZM  15 1
M  ZZI  15 112
M  ZZM  16 37
M  ZZI  16 125
M  ZZM  17 37
M  ZZI  17 125
M  ZZM  18 37
M  ZZI  18 125
M  ZZM  19 5
M  ZZI  19 1
M  ZZM  20 5
M  ZZI  20 1
M  ZZM  21 28
M  ZZI  21 11
M  ZZM  22 5
M  ZZI  22 1
M  ZZM  23 5
M  ZZI  23 1
M  ZZM  24 5
M  ZZI  24 1
M  ZZM  25 5
M  ZZI  25 1
M  ZZM  26 5
M  ZZI  26 1
M  ZZM  27 5
M  ZZI  27 1
M  ZZM  28 5
M  ZZI  28 1
M  ZZM  29 5
M  ZZI  29 1
M  ZZM  30 5
M  ZZI  30 1
M  END
> <IX>
1

> <NAME>
Cereblon_4IPF_6.pdb

> <Score>
-18.85468

> <Natom>
30

> <Nflex>
1

> <Hbond>
-3.270789

> <Hphob>
-3.944194

> <VwInt>
-21.056806

> <Dsolv>
10.937719

> <SolEl>
5.588306

> <Eintl>
1.0471

> <RecConf>
ND

> <projPath>
Cereblon_maps/

> <NAME_>
Cereblon_4IPF_6.pdb

$$$$
