Cereblon_2VTI_10.pdb
  MOLSOFT 04032206203D

 29 31  0  0  1  0  0  0  0  0999 V2000
   81.5906   53.9077   19.7908 C   0  0  0  0  0  0  0  0  0  0  0  0
   80.9486   54.8862   20.5285 C   0  0  0  0  0  0  0  0  0  0  0  0
   79.7738   54.7904   21.3903 C   0  0  0  0  0  0  0  0  0  0  0  0
   79.1659   53.7529   21.6115 O   0  0  0  0  0  0  0  0  0  0  0  0
   79.5622   56.0571   21.8956 N   0  0  0  0  0  0  0  0  0  0  0  0
   80.5055   56.9453   21.4271 C   0  0  0  0  0  0  0  0  0  0  0  0
   80.6433   58.1382   21.6557 O   0  0  0  0  0  0  0  0  0  0  0  0
   81.3826   56.1771   20.5510 C   0  0  0  0  0  0  0  0  0  0  0  0
   82.4874   56.5947   19.8368 C   0  0  0  0  0  0  0  0  0  0  0  0
   83.1427   55.6297   19.0855 C   0  0  0  0  0  0  0  0  0  0  0  0
   82.7056   54.3045   19.0621 C   0  0  0  0  0  0  0  0  0  0  0  0
   78.4709   56.3792   22.8134 C   0  0  2  0  0  0  0  0  0  0  0  0
   77.3548   57.1200   22.1046 C   0  0  0  0  0  0  0  0  0  0  0  0
   77.1946   57.1068   20.8933 O   0  0  0  0  0  0  0  0  0  0  0  0
   76.4664   57.7470   22.9461 N   0  0  0  0  0  0  0  0  0  0  0  0
   76.5042   57.8493   24.3163 C   0  0  0  0  0  0  0  0  0  0  0  0
   75.5875   58.3482   24.9490 O   0  0  0  0  0  0  0  0  0  0  0  0
   77.7201   57.2647   24.9960 C   0  0  0  0  0  0  0  0  0  0  0  0
   78.8940   57.1824   24.0395 C   0  0  0  0  0  0  0  0  0  0  0  0
   81.2370   52.8809   19.7738 H   0  0  0  0  0  0  0  0  0  0  0  0
   82.8298   57.6250   19.8627 H   0  0  0  0  0  0  0  0  0  0  0  0
   84.0126   55.9207   18.5085 H   0  0  0  0  0  0  0  0  0  0  0  0
   83.2420   53.5734   18.4642 H   0  0  0  0  0  0  0  0  0  0  0  0
   78.0337   55.4308   23.1308 H   0  0  0  0  0  0  0  0  0  0  0  0
   75.6844   58.2015   22.4942 H   0  0  0  0  0  0  0  0  0  0  0  0
   77.9818   57.8908   25.8550 H   0  0  0  0  0  0  0  0  0  0  0  0
   77.4611   56.2699   25.3660 H   0  0  0  0  0  0  0  0  0  0  0  0
   79.7470   56.7156   24.5389 H   0  0  0  0  0  0  0  0  0  0  0  0
   79.2053   58.1948   23.7601 H   0  0  0  0  0  0  0  0  0  0  0  0
  1 20  1  0  0  0  0
  1  2  1  0  0  0  0
  1 11  2  0  0  0  0
  2  3  1  0  0  0  0
  2  8  2  0  0  0  0
  3  4  2  0  0  0  0
  3  5  1  0  0  0  0
  5  6  1  0  0  0  0
 12  5  1  0  0  0  0
  6  7  2  0  0  0  0
  6  8  1  0  0  0  0
  8  9  1  0  0  0  0
  9 21  1  0  0  0  0
  9 10  2  0  0  0  0
 10 22  1  0  0  0  0
 10 11  1  0  0  0  0
 11 23  1  0  0  0  0
 12 24  1  0  0  0  0
 12 13  1  0  0  0  0
 12 19  1  0  0  0  0
 13 14  2  0  0  0  0
 13 15  1  0  0  0  0
 15 25  1  0  0  0  0
 15 16  1  0  0  0  0
 16 17  2  0  0  0  0
 16 18  1  0  0  0  0
 18 26  1  0  0  0  0
 18 27  1  0  0  0  0
 18 19  1  0  0  0  0
 19 28  1  0  0  0  0
 19 29  1  0  0  0  0
M  ZZC   1 c1
M  ZZC   2 c2
M  ZZC   3 c3
M  ZZC   4 o1
M  ZZC   5 n1
M  ZZC   6 c4
M  ZZC   7 o2
M  ZZC   8 c5
M  ZZC   9 c6
M  ZZC  10 c7
M  ZZC  11 c8
M  ZZC  12 c9
M  ZZC  13 c10
M  ZZC  14 o3
M  ZZC  15 n2
M  ZZC  16 c11
M  ZZC  17 o4
M  ZZC  18 c12
M  ZZC  19 c13
M  ZZC  20 h11
M  ZZC  21 h61
M  ZZC  22 h71
M  ZZC  23 h81
M  ZZC  24 h91
M  ZZC  25 h21
M  ZZC  26 h121
M  ZZC  27 h122
M  ZZC  28 h131
M  ZZC  29 h132
M  ZZM   1 37
M  ZZI   1 125
M  ZZM   2 37
M  ZZI   2 124
M  ZZM   3 3
M  ZZI   3 121
M  ZZM   4 7
M  ZZI   4 81
M  ZZM   5 10
M  ZZI   5 192
M  ZZM   6 3
M  ZZI   6 121
M  ZZM   7 7
M  ZZI   7 81
M  ZZM   8 37
M  ZZI   8 124
M  ZZM   9 37
M  ZZI   9 125
M  ZZM  10 37
M  ZZI  10 125
M  ZZM  11 37
M  ZZI  11 125
M  ZZM  12 1
M  ZZI  12 113
M  ZZM  13 3
M  ZZI  13 121
M  ZZM  14 7
M  ZZI  14 81
M  ZZM  15 10
M  ZZI  15 191
M  ZZM  16 3
M  ZZI  16 121
M  ZZM  17 7
M  ZZI  17 81
M  ZZM  18 1
M  ZZI  18 112
M  ZZM  19 1
M  ZZI  19 112
M  ZZM  20 5
M  ZZI  20 1
M  ZZM  21 5
M  ZZI  21 1
M  ZZM  22 5
M  ZZI  22 1
M  ZZM  23 5
M  ZZI  23 1
M  ZZM  24 5
M  ZZI  24 1
M  ZZM  25 28
M  ZZI  25 11
M  ZZM  26 5
M  ZZI  26 1
M  ZZM  27 5
M  ZZI  27 1
M  ZZM  28 5
M  ZZI  28 1
M  ZZM  29 5
M  ZZI  29 1
M  END
> <IX>
1

> <NAME>
Cereblon_2VTI_10.pdb

> <Score>
-14.577305

> <Natom>
29

> <Nflex>
1

> <Hbond>
-0.485129

> <Hphob>
-3.296943

> <VwInt>
-22.864345

> <Dsolv>
11.392372

> <SolEl>
3.167552

> <Eintl>
0.814174

> <RecConf>
ND

> <projPath>
Cereblon_maps/

> <NAME_>
Cereblon_2VTI_10.pdb

$$$$
