Cereblon_5TRF_3.pdb
  MOLSOFT 04032206273D

 30 32  0  0  1  0  0  0  0  0999 V2000
   76.0562   42.8409   38.6173 C   0  0  0  0  0  0  0  0  0  0  0  0
   74.9776   42.0595   38.2377 C   0  0  0  0  0  0  0  0  0  0  0  0
   74.7313   40.8755   38.8724 C   0  0  0  0  0  0  0  0  0  0  0  0
   73.5589   40.2546   38.2510 C   0  0  0  0  0  0  0  0  0  0  0  0
   73.1146   39.1640   38.5780 O   0  0  0  0  0  0  0  0  0  0  0  0
   73.1150   41.1266   37.2724 N   0  0  0  0  0  0  0  0  0  0  0  0
   71.9710   40.8384   36.3877 C   0  0  1  0  0  0  0  0  0  0  0  0
   70.6428   41.0125   37.1222 C   0  0  0  0  0  0  0  0  0  0  0  0
   70.2001   40.2116   37.9313 O   0  0  0  0  0  0  0  0  0  0  0  0
   69.9394   42.1588   36.8677 N   0  0  0  0  0  0  0  0  0  0  0  0
   70.2303   43.1827   36.0184 C   0  0  0  0  0  0  0  0  0  0  0  0
   69.5124   44.1660   35.9812 O   0  0  0  0  0  0  0  0  0  0  0  0
   71.4792   43.0449   35.1917 C   0  0  0  0  0  0  0  0  0  0  0  0
   71.9287   41.5954   35.0570 C   0  0  0  0  0  0  0  0  0  0  0  0
   73.9695   42.2988   37.1738 C   0  0  0  0  0  0  0  0  0  0  0  0
   75.5111   40.3976   39.9087 C   0  0  0  0  0  0  0  0  0  0  0  0
   76.5760   41.1891   40.3117 C   0  0  0  0  0  0  0  0  0  0  0  0
   76.8436   42.3961   39.6708 C   0  0  0  0  0  0  0  0  0  0  0  0
   76.2888   43.7734   38.1127 H   0  0  0  0  0  0  0  0  0  0  0  0
   72.0377   39.7699   36.1538 H   0  0  0  0  0  0  0  0  0  0  0  0
   69.0704   42.2605   37.3755 H   0  0  0  0  0  0  0  0  0  0  0  0
   71.2650   43.4458   34.1982 H   0  0  0  0  0  0  0  0  0  0  0  0
   72.2507   43.6790   35.6325 H   0  0  0  0  0  0  0  0  0  0  0  0
   71.2174   41.0874   34.3953 H   0  0  0  0  0  0  0  0  0  0  0  0
   72.8979   41.5502   34.5521 H   0  0  0  0  0  0  0  0  0  0  0  0
   73.3892   43.2008   37.3760 H   0  0  0  0  0  0  0  0  0  0  0  0
   74.4410   42.3348   36.1868 H   0  0  0  0  0  0  0  0  0  0  0  0
   75.3010   39.4458   40.3861 H   0  0  0  0  0  0  0  0  0  0  0  0
   77.2153   40.8600   41.1253 H   0  0  0  0  0  0  0  0  0  0  0  0
   77.6900   42.9941   39.9952 H   0  0  0  0  0  0  0  0  0  0  0  0
  1 19  1  0  0  0  0
  1 18  2  0  0  0  0
  1  2  1  0  0  0  0
  2  3  2  0  0  0  0
  2 15  1  0  0  0  0
  3 16  1  0  0  0  0
  3  4  1  0  0  0  0
  4  6  1  0  0  0  0
  4  5  2  0  0  0  0
  6 15  1  0  0  0  0
  7  6  1  0  0  0  0
  7 20  1  0  0  0  0
  7  8  1  0  0  0  0
  7 14  1  0  0  0  0
  8  9  2  0  0  0  0
  8 10  1  0  0  0  0
 10 21  1  0  0  0  0
 10 11  1  0  0  0  0
 11 12  2  0  0  0  0
 11 13  1  0  0  0  0
 13 22  1  0  0  0  0
 13 23  1  0  0  0  0
 13 14  1  0  0  0  0
 14 24  1  0  0  0  0
 14 25  1  0  0  0  0
 15 26  1  0  0  0  0
 15 27  1  0  0  0  0
 16 17  2  0  0  0  0
 16 28  1  0  0  0  0
 17 18  1  0  0  0  0
 17 29  1  0  0  0  0
 18 30  1  0  0  0  0
M  ZZC   1 c1
M  ZZC   2 c2
M  ZZC   3 c3
M  ZZC   4 c4
M  ZZC   5 o1
M  ZZC   6 n1
M  ZZC   7 c5
M  ZZC   8 c6
M  ZZC   9 o2
M  ZZC  10 n2
M  ZZC  11 c7
M  ZZC  12 o3
M  ZZC  13 c8
M  ZZC  14 c9
M  ZZC  15 c10
M  ZZC  16 c11
M  ZZC  17 c12
M  ZZC  18 c13
M  ZZC  19 h11
M  ZZC  20 h51
M  ZZC  21 h21
M  ZZC  22 h81
M  ZZC  23 h82
M  ZZC  24 h91
M  ZZC  25 h92
M  ZZC  26 h101
M  ZZC  27 h102
M  ZZC  28 h111
M  ZZC  29 h121
M  ZZC  30 h131
M  ZZM   1 37
M  ZZI   1 125
M  ZZM   2 37
M  ZZI   2 124
M  ZZM   3 37
M  ZZI   3 124
M  ZZM   4 3
M  ZZI   4 121
M  ZZM   5 7
M  ZZI   5 81
M  ZZM   6 10
M  ZZI   6 192
M  ZZM   7 1
M  ZZI   7 113
M  ZZM   8 3
M  ZZI   8 121
M  ZZM   9 7
M  ZZI   9 81
M  ZZM  10 10
M  ZZI  10 191
M  ZZM  11 3
M  ZZI  11 121
M  ZZM  12 7
M  ZZI  12 81
M  ZZM  13 1
M  ZZI  13 112
M  ZZM  14 1
M  ZZI  14 112
M  ZZM  15 1
M  ZZI  15 112
M  ZZM  16 37
M  ZZI  16 125
M  ZZM  17 37
M  ZZI  17 125
M  ZZM  18 37
M  ZZI  18 125
M  ZZM  19 5
M  ZZI  19 1
M  ZZM  20 5
M  ZZI  20 1
M  ZZM  21 28
M  ZZI  21 11
M  ZZM  22 5
M  ZZI  22 1
M  ZZM  23 5
M  ZZI  23 1
M  ZZM  24 5
M  ZZI  24 1
M  ZZM  25 5
M  ZZI  25 1
M  ZZM  26 5
M  ZZI  26 1
M  ZZM  27 5
M  ZZI  27 1
M  ZZM  28 5
M  ZZI  28 1
M  ZZM  29 5
M  ZZI  29 1
M  ZZM  30 5
M  ZZI  30 1
M  END
> <IX>
1

> <NAME>
Cereblon_5TRF_3.pdb

> <Score>
-14.165928

> <Natom>
30

> <Nflex>
1

> <Hbond>
-4.292077

> <Hphob>
-3.989647

> <VwInt>
-21.816186

> <Dsolv>
12.623531

> <SolEl>
11.875747

> <Eintl>
5.461057

> <RecConf>
ND

> <projPath>
Cereblon_maps/

> <NAME_>
Cereblon_5TRF_3.pdb

$$$$
