Cereblon_5TRF_8.pdb
  MOLSOFT 04032206273D

 31 33  0  0  1  0  0  0  0  0999 V2000
   78.0538   40.6324   42.6419 N   0  0  0  0  0  0  0  0  0  0  0  0
   78.1179   41.7137   41.7484 C   0  0  0  0  0  0  0  0  0  0  0  0
   77.2880   41.8101   40.6405 C   0  0  0  0  0  0  0  0  0  0  0  0
   76.2187   40.9219   40.1905 C   0  0  0  0  0  0  0  0  0  0  0  0
   75.9698   39.8352   40.6933 O   0  0  0  0  0  0  0  0  0  0  0  0
   75.5968   41.5532   39.1291 N   0  0  0  0  0  0  0  0  0  0  0  0
   76.3227   42.6634   38.7474 C   0  0  0  0  0  0  0  0  0  0  0  0
   76.2176   43.3655   37.7530 O   0  0  0  0  0  0  0  0  0  0  0  0
   77.3614   42.8465   39.7608 C   0  0  0  0  0  0  0  0  0  0  0  0
   78.3013   43.8523   39.8904 C   0  0  0  0  0  0  0  0  0  0  0  0
   79.1682   43.7684   40.9722 C   0  0  0  0  0  0  0  0  0  0  0  0
   79.0723   42.7193   41.8882 C   0  0  0  0  0  0  0  0  0  0  0  0
   74.3445   41.0440   38.5407 C   0  0  1  0  0  0  0  0  0  0  0  0
   73.2135   41.3281   39.5203 C   0  0  0  0  0  0  0  0  0  0  0  0
   73.3985   41.6098   40.6918 O   0  0  0  0  0  0  0  0  0  0  0  0
   71.9398   41.1926   39.0286 N   0  0  0  0  0  0  0  0  0  0  0  0
   71.5544   40.9355   37.7387 C   0  0  0  0  0  0  0  0  0  0  0  0
   70.3913   40.6823   37.4643 O   0  0  0  0  0  0  0  0  0  0  0  0
   72.6637   40.9305   36.7072 C   0  0  0  0  0  0  0  0  0  0  0  0
   73.9085   41.6530   37.2075 C   0  0  0  0  0  0  0  0  0  0  0  0
   78.6658   40.5904   43.4560 H   0  0  0  0  0  0  0  0  0  0  0  0
   77.2744   39.9763   42.5698 H   0  0  0  0  0  0  0  0  0  0  0  0
   78.3569   44.6715   39.1820 H   0  0  0  0  0  0  0  0  0  0  0  0
   79.9226   44.5358   41.1146 H   0  0  0  0  0  0  0  0  0  0  0  0
   79.7585   42.6917   42.7288 H   0  0  0  0  0  0  0  0  0  0  0  0
   74.4373   39.9541   38.4641 H   0  0  0  0  0  0  0  0  0  0  0  0
   71.1934   41.2953   39.7038 H   0  0  0  0  0  0  0  0  0  0  0  0
   72.8952   39.8887   36.4616 H   0  0  0  0  0  0  0  0  0  0  0  0
   72.2955   41.4187   35.7990 H   0  0  0  0  0  0  0  0  0  0  0  0
   74.6977   41.5882   36.4572 H   0  0  0  0  0  0  0  0  0  0  0  0
   73.6833   42.7194   37.3276 H   0  0  0  0  0  0  0  0  0  0  0  0
  1  2  1  0  0  0  0
  1 21  1  0  0  0  0
  1 22  1  0  0  0  0
  2  3  1  0  0  0  0
  2 12  2  0  0  0  0
  3  9  2  0  0  0  0
  3  4  1  0  0  0  0
  4  5  2  0  0  0  0
  4  6  1  0  0  0  0
  6  7  1  0  0  0  0
 13  6  1  0  0  0  0
  7  8  2  0  0  0  0
  7  9  1  0  0  0  0
  9 10  1  0  0  0  0
 10 23  1  0  0  0  0
 10 11  2  0  0  0  0
 11 12  1  0  0  0  0
 11 24  1  0  0  0  0
 12 25  1  0  0  0  0
 13 26  1  0  0  0  0
 13 14  1  0  0  0  0
 13 20  1  0  0  0  0
 14 15  2  0  0  0  0
 14 16  1  0  0  0  0
 16 27  1  0  0  0  0
 16 17  1  0  0  0  0
 17 18  2  0  0  0  0
 17 19  1  0  0  0  0
 19 28  1  0  0  0  0
 19 29  1  0  0  0  0
 19 20  1  0  0  0  0
 20 30  1  0  0  0  0
 20 31  1  0  0  0  0
M  ZZC   1 n1
M  ZZC   2 c1
M  ZZC   3 c2
M  ZZC   4 c3
M  ZZC   5 o1
M  ZZC   6 n2
M  ZZC   7 c4
M  ZZC   8 o2
M  ZZC   9 c5
M  ZZC  10 c6
M  ZZC  11 c7
M  ZZC  12 c8
M  ZZC  13 c9
M  ZZC  14 c10
M  ZZC  15 o3
M  ZZC  16 n3
M  ZZC  17 c11
M  ZZC  18 o4
M  ZZC  19 c12
M  ZZC  20 c13
M  ZZC  21 h11
M  ZZC  22 h12
M  ZZC  23 h61
M  ZZC  24 h71
M  ZZC  25 h81
M  ZZC  26 h91
M  ZZC  27 h31
M  ZZC  28 h121
M  ZZC  29 h122
M  ZZC  30 h131
M  ZZC  31 h132
M  ZZM   1 40
M  ZZI   1 224
M  ZZM   2 37
M  ZZI   2 124
M  ZZM   3 37
M  ZZI   3 124
M  ZZM   4 3
M  ZZI   4 121
M  ZZM   5 7
M  ZZI   5 81
M  ZZM   6 10
M  ZZI   6 192
M  ZZM   7 3
M  ZZI   7 121
M  ZZM   8 7
M  ZZI   8 81
M  ZZM   9 37
M  ZZI   9 124
M  ZZM  10 37
M  ZZI  10 125
M  ZZM  11 37
M  ZZI  11 125
M  ZZM  12 37
M  ZZI  12 125
M  ZZM  13 1
M  ZZI  13 113
M  ZZM  14 3
M  ZZI  14 121
M  ZZM  15 7
M  ZZI  15 81
M  ZZM  16 10
M  ZZI  16 191
M  ZZM  17 3
M  ZZI  17 121
M  ZZM  18 7
M  ZZI  18 81
M  ZZM  19 1
M  ZZI  19 112
M  ZZM  20 1
M  ZZI  20 112
M  ZZM  21 28
M  ZZI  21 11
M  ZZM  22 28
M  ZZI  22 11
M  ZZM  23 5
M  ZZI  23 1
M  ZZM  24 5
M  ZZI  24 1
M  ZZM  25 5
M  ZZI  25 1
M  ZZM  26 5
M  ZZI  26 1
M  ZZM  27 28
M  ZZI  27 11
M  ZZM  28 5
M  ZZI  28 1
M  ZZM  29 5
M  ZZI  29 1
M  ZZM  30 5
M  ZZI  30 1
M  ZZM  31 5
M  ZZI  31 1
M  END
> <IX>
1

> <NAME>
Cereblon_5TRF_8.pdb

> <Score>
-14.053535

> <Natom>
31

> <Nflex>
1

> <Hbond>
-2.721303

> <Hphob>
-3.765379

> <VwInt>
-26.886124

> <Dsolv>
17.236786

> <SolEl>
7.808702

> <Eintl>
5.931594

> <RecConf>
ND

> <projPath>
Cereblon_maps/

> <NAME_>
Cereblon_5TRF_8.pdb

$$$$
