Cereblon_3UE4_6.pdb
  MOLSOFT 04032206233D

 29 31  0  0  1  0  0  0  0  0999 V2000
   79.0008   42.4881   42.6742 C   0  0  0  0  0  0  0  0  0  0  0  0
   78.1834   42.1934   41.5973 C   0  0  0  0  0  0  0  0  0  0  0  0
   77.2682   41.0739   41.4106 C   0  0  0  0  0  0  0  0  0  0  0  0
   77.0886   40.2121   42.2574 O   0  0  0  0  0  0  0  0  0  0  0  0
   76.7264   41.2166   40.1464 N   0  0  0  0  0  0  0  0  0  0  0  0
   77.2229   42.3439   39.5231 C   0  0  0  0  0  0  0  0  0  0  0  0
   76.9885   42.7632   38.3970 O   0  0  0  0  0  0  0  0  0  0  0  0
   78.1561   42.9566   40.4688 C   0  0  0  0  0  0  0  0  0  0  0  0
   78.9547   44.0735   40.3273 C   0  0  0  0  0  0  0  0  0  0  0  0
   79.7957   44.3836   41.3905 C   0  0  0  0  0  0  0  0  0  0  0  0
   79.8191   43.6049   42.5483 C   0  0  0  0  0  0  0  0  0  0  0  0
   75.7172   40.3628   39.5145 C   0  0  2  0  0  0  0  0  0  0  0  0
   74.3381   40.9329   39.8051 C   0  0  0  0  0  0  0  0  0  0  0  0
   74.1507   42.1192   40.0187 O   0  0  0  0  0  0  0  0  0  0  0  0
   73.2873   40.0514   39.7312 N   0  0  0  0  0  0  0  0  0  0  0  0
   73.3238   38.7071   39.4538 C   0  0  0  0  0  0  0  0  0  0  0  0
   72.3068   38.0359   39.3917 O   0  0  0  0  0  0  0  0  0  0  0  0
   74.6878   38.1239   39.1761 C   0  0  0  0  0  0  0  0  0  0  0  0
   75.7706   38.8912   39.9147 C   0  0  0  0  0  0  0  0  0  0  0  0
   79.0108   41.8730   43.5699 H   0  0  0  0  0  0  0  0  0  0  0  0
   78.9252   44.6751   39.4271 H   0  0  0  0  0  0  0  0  0  0  0  0
   80.4432   45.2501   41.3220 H   0  0  0  0  0  0  0  0  0  0  0  0
   80.4856   43.8738   43.3627 H   0  0  0  0  0  0  0  0  0  0  0  0
   75.8546   40.4518   38.4346 H   0  0  0  0  0  0  0  0  0  0  0  0
   72.3694   40.4453   39.8962 H   0  0  0  0  0  0  0  0  0  0  0  0
   74.6930   37.0782   39.4996 H   0  0  0  0  0  0  0  0  0  0  0  0
   74.8502   38.1478   38.0941 H   0  0  0  0  0  0  0  0  0  0  0  0
   75.6075   38.7706   40.9894 H   0  0  0  0  0  0  0  0  0  0  0  0
   76.7556   38.4692   39.6899 H   0  0  0  0  0  0  0  0  0  0  0  0
  1 20  1  0  0  0  0
  1  2  1  0  0  0  0
  1 11  2  0  0  0  0
  2  3  1  0  0  0  0
  2  8  2  0  0  0  0
  3  4  2  0  0  0  0
  3  5  1  0  0  0  0
  5  6  1  0  0  0  0
 12  5  1  0  0  0  0
  6  7  2  0  0  0  0
  6  8  1  0  0  0  0
  8  9  1  0  0  0  0
  9 21  1  0  0  0  0
  9 10  2  0  0  0  0
 10 22  1  0  0  0  0
 10 11  1  0  0  0  0
 11 23  1  0  0  0  0
 12 24  1  0  0  0  0
 12 13  1  0  0  0  0
 12 19  1  0  0  0  0
 13 14  2  0  0  0  0
 13 15  1  0  0  0  0
 15 25  1  0  0  0  0
 15 16  1  0  0  0  0
 16 17  2  0  0  0  0
 16 18  1  0  0  0  0
 18 26  1  0  0  0  0
 18 27  1  0  0  0  0
 18 19  1  0  0  0  0
 19 28  1  0  0  0  0
 19 29  1  0  0  0  0
M  ZZC   1 c1
M  ZZC   2 c2
M  ZZC   3 c3
M  ZZC   4 o1
M  ZZC   5 n1
M  ZZC   6 c4
M  ZZC   7 o2
M  ZZC   8 c5
M  ZZC   9 c6
M  ZZC  10 c7
M  ZZC  11 c8
M  ZZC  12 c9
M  ZZC  13 c10
M  ZZC  14 o3
M  ZZC  15 n2
M  ZZC  16 c11
M  ZZC  17 o4
M  ZZC  18 c12
M  ZZC  19 c13
M  ZZC  20 h11
M  ZZC  21 h61
M  ZZC  22 h71
M  ZZC  23 h81
M  ZZC  24 h91
M  ZZC  25 h21
M  ZZC  26 h121
M  ZZC  27 h122
M  ZZC  28 h131
M  ZZC  29 h132
M  ZZM   1 37
M  ZZI   1 125
M  ZZM   2 37
M  ZZI   2 124
M  ZZM   3 3
M  ZZI   3 121
M  ZZM   4 7
M  ZZI   4 81
M  ZZM   5 10
M  ZZI   5 192
M  ZZM   6 3
M  ZZI   6 121
M  ZZM   7 7
M  ZZI   7 81
M  ZZM   8 37
M  ZZI   8 124
M  ZZM   9 37
M  ZZI   9 125
M  ZZM  10 37
M  ZZI  10 125
M  ZZM  11 37
M  ZZI  11 125
M  ZZM  12 1
M  ZZI  12 113
M  ZZM  13 3
M  ZZI  13 121
M  ZZM  14 7
M  ZZI  14 81
M  ZZM  15 10
M  ZZI  15 191
M  ZZM  16 3
M  ZZI  16 121
M  ZZM  17 7
M  ZZI  17 81
M  ZZM  18 1
M  ZZI  18 112
M  ZZM  19 1
M  ZZI  19 112
M  ZZM  20 5
M  ZZI  20 1
M  ZZM  21 5
M  ZZI  21 1
M  ZZM  22 5
M  ZZI  22 1
M  ZZM  23 5
M  ZZI  23 1
M  ZZM  24 5
M  ZZI  24 1
M  ZZM  25 28
M  ZZI  25 11
M  ZZM  26 5
M  ZZI  26 1
M  ZZM  27 5
M  ZZI  27 1
M  ZZM  28 5
M  ZZI  28 1
M  ZZM  29 5
M  ZZI  29 1
M  END
> <IX>
1

> <NAME>
Cereblon_3UE4_6.pdb

> <Score>
-19.178563

> <Natom>
29

> <Nflex>
1

> <Hbond>
-3.298309

> <Hphob>
-3.531148

> <VwInt>
-22.79701

> <Dsolv>
12.014537

> <SolEl>
5.825326

> <Eintl>
1.455701

> <RecConf>
ND

> <projPath>
Cereblon_maps/

> <NAME_>
Cereblon_3UE4_6.pdb

$$$$
