Cereblon_3HLL_24.pdb
  MOLSOFT 04032206213D

 31 33  0  0  1  0  0  0  0  0999 V2000
   78.8142   41.6838   43.8108 N   0  0  0  0  0  0  0  0  0  0  0  0
   78.8968   42.4350   42.6282 C   0  0  0  0  0  0  0  0  0  0  0  0
   78.0952   42.1630   41.5323 C   0  0  0  0  0  0  0  0  0  0  0  0
   77.1762   41.0507   41.3266 C   0  0  0  0  0  0  0  0  0  0  0  0
   76.9935   40.1703   42.1544 O   0  0  0  0  0  0  0  0  0  0  0  0
   76.6420   41.2122   40.0637 N   0  0  0  0  0  0  0  0  0  0  0  0
   77.1632   42.3318   39.4475 C   0  0  0  0  0  0  0  0  0  0  0  0
   76.9527   42.7502   38.3165 O   0  0  0  0  0  0  0  0  0  0  0  0
   78.0933   42.9299   40.4066 C   0  0  0  0  0  0  0  0  0  0  0  0
   78.9069   44.0375   40.2828 C   0  0  0  0  0  0  0  0  0  0  0  0
   79.7251   44.3382   41.3656 C   0  0  0  0  0  0  0  0  0  0  0  0
   79.7117   43.5583   42.5238 C   0  0  0  0  0  0  0  0  0  0  0  0
   75.6214   40.3753   39.4290 C   0  0  2  0  0  0  0  0  0  0  0  0
   74.2507   40.9550   39.7334 C   0  0  0  0  0  0  0  0  0  0  0  0
   74.0817   42.1349   39.9928 O   0  0  0  0  0  0  0  0  0  0  0  0
   73.1892   40.0917   39.6152 N   0  0  0  0  0  0  0  0  0  0  0  0
   73.2131   38.7544   39.3011 C   0  0  0  0  0  0  0  0  0  0  0  0
   72.1874   38.1037   39.1856 O   0  0  0  0  0  0  0  0  0  0  0  0
   74.5762   38.1518   39.0564 C   0  0  0  0  0  0  0  0  0  0  0  0
   75.6534   38.9015   39.8205 C   0  0  0  0  0  0  0  0  0  0  0  0
   79.5209   41.7969   44.5346 H   0  0  0  0  0  0  0  0  0  0  0  0
   78.2866   40.8094   43.7934 H   0  0  0  0  0  0  0  0  0  0  0  0
   78.9016   44.6422   39.3837 H   0  0  0  0  0  0  0  0  0  0  0  0
   80.3769   45.2033   41.3173 H   0  0  0  0  0  0  0  0  0  0  0  0
   80.3475   43.8388   43.3581 H   0  0  0  0  0  0  0  0  0  0  0  0
   75.7555   40.4731   38.3505 H   0  0  0  0  0  0  0  0  0  0  0  0
   72.2739   40.4949   39.7733 H   0  0  0  0  0  0  0  0  0  0  0  0
   74.5578   37.1051   39.3765 H   0  0  0  0  0  0  0  0  0  0  0  0
   74.7681   38.1732   37.9792 H   0  0  0  0  0  0  0  0  0  0  0  0
   75.4674   38.7755   40.8910 H   0  0  0  0  0  0  0  0  0  0  0  0
   76.6382   38.4699   39.6144 H   0  0  0  0  0  0  0  0  0  0  0  0
  1  2  1  0  0  0  0
  1 21  1  0  0  0  0
  1 22  1  0  0  0  0
  2  3  1  0  0  0  0
  2 12  2  0  0  0  0
  3  9  2  0  0  0  0
  3  4  1  0  0  0  0
  4  5  2  0  0  0  0
  4  6  1  0  0  0  0
  6  7  1  0  0  0  0
 13  6  1  0  0  0  0
  7  8  2  0  0  0  0
  7  9  1  0  0  0  0
  9 10  1  0  0  0  0
 10 23  1  0  0  0  0
 10 11  2  0  0  0  0
 11 12  1  0  0  0  0
 11 24  1  0  0  0  0
 12 25  1  0  0  0  0
 13 26  1  0  0  0  0
 13 14  1  0  0  0  0
 13 20  1  0  0  0  0
 14 15  2  0  0  0  0
 14 16  1  0  0  0  0
 16 27  1  0  0  0  0
 16 17  1  0  0  0  0
 17 18  2  0  0  0  0
 17 19  1  0  0  0  0
 19 28  1  0  0  0  0
 19 29  1  0  0  0  0
 19 20  1  0  0  0  0
 20 30  1  0  0  0  0
 20 31  1  0  0  0  0
M  ZZC   1 n1
M  ZZC   2 c1
M  ZZC   3 c2
M  ZZC   4 c3
M  ZZC   5 o1
M  ZZC   6 n2
M  ZZC   7 c4
M  ZZC   8 o2
M  ZZC   9 c5
M  ZZC  10 c6
M  ZZC  11 c7
M  ZZC  12 c8
M  ZZC  13 c9
M  ZZC  14 c10
M  ZZC  15 o3
M  ZZC  16 n3
M  ZZC  17 c11
M  ZZC  18 o4
M  ZZC  19 c12
M  ZZC  20 c13
M  ZZC  21 h11
M  ZZC  22 h12
M  ZZC  23 h61
M  ZZC  24 h71
M  ZZC  25 h81
M  ZZC  26 h91
M  ZZC  27 h31
M  ZZC  28 h121
M  ZZC  29 h122
M  ZZC  30 h131
M  ZZC  31 h132
M  ZZM   1 40
M  ZZI   1 224
M  ZZM   2 37
M  ZZI   2 124
M  ZZM   3 37
M  ZZI   3 124
M  ZZM   4 3
M  ZZI   4 121
M  ZZM   5 7
M  ZZI   5 81
M  ZZM   6 10
M  ZZI   6 192
M  ZZM   7 3
M  ZZI   7 121
M  ZZM   8 7
M  ZZI   8 81
M  ZZM   9 37
M  ZZI   9 124
M  ZZM  10 37
M  ZZI  10 125
M  ZZM  11 37
M  ZZI  11 125
M  ZZM  12 37
M  ZZI  12 125
M  ZZM  13 1
M  ZZI  13 113
M  ZZM  14 3
M  ZZI  14 121
M  ZZM  15 7
M  ZZI  15 81
M  ZZM  16 10
M  ZZI  16 191
M  ZZM  17 3
M  ZZI  17 121
M  ZZM  18 7
M  ZZI  18 81
M  ZZM  19 1
M  ZZI  19 112
M  ZZM  20 1
M  ZZI  20 112
M  ZZM  21 28
M  ZZI  21 11
M  ZZM  22 28
M  ZZI  22 11
M  ZZM  23 5
M  ZZI  23 1
M  ZZM  24 5
M  ZZI  24 1
M  ZZM  25 5
M  ZZI  25 1
M  ZZM  26 5
M  ZZI  26 1
M  ZZM  27 28
M  ZZI  27 11
M  ZZM  28 5
M  ZZI  28 1
M  ZZM  29 5
M  ZZI  29 1
M  ZZM  30 5
M  ZZI  30 1
M  ZZM  31 5
M  ZZI  31 1
M  END
> <IX>
1

> <NAME>
Cereblon_3HLL_24.pdb

> <Score>
-18.734406

> <Natom>
31

> <Nflex>
1

> <Hbond>
-3.682209

> <Hphob>
-3.574607

> <VwInt>
-24.282423

> <Dsolv>
15.145609

> <SolEl>
6.502615

> <Eintl>
1.680099

> <RecConf>
ND

> <projPath>
Cereblon_maps/

> <NAME_>
Cereblon_3HLL_24.pdb

$$$$
