Cereblon_3MXF_39.pdb
  MOLSOFT 04032206223D

 29 31  0  0  1  0  0  0  0  0999 V2000
   72.5521   42.8432   36.0469 C   0  0  0  0  0  0  0  0  0  0  0  0
   73.0888   42.0830   37.0688 C   0  0  0  0  0  0  0  0  0  0  0  0
   74.4834   41.8527   37.4388 C   0  0  0  0  0  0  0  0  0  0  0  0
   75.4418   42.3773   36.8893 O   0  0  0  0  0  0  0  0  0  0  0  0
   74.4668   40.9881   38.5144 N   0  0  0  0  0  0  0  0  0  0  0  0
   73.1698   40.7433   38.9222 C   0  0  0  0  0  0  0  0  0  0  0  0
   72.7510   40.1221   39.8878 O   0  0  0  0  0  0  0  0  0  0  0  0
   72.3026   41.4173   37.9581 C   0  0  0  0  0  0  0  0  0  0  0  0
   70.9222   41.4670   37.8960 C   0  0  0  0  0  0  0  0  0  0  0  0
   70.3622   42.2324   36.8768 C   0  0  0  0  0  0  0  0  0  0  0  0
   71.1665   42.9098   35.9615 C   0  0  0  0  0  0  0  0  0  0  0  0
   75.6991   40.5460   39.1801 C   0  0  1  0  0  0  0  0  0  0  0  0
   76.0767   41.5557   40.2426 C   0  0  0  0  0  0  0  0  0  0  0  0
   75.6893   42.7118   40.1983 O   0  0  0  0  0  0  0  0  0  0  0  0
   76.9330   41.1071   41.2214 N   0  0  0  0  0  0  0  0  0  0  0  0
   77.4204   39.8356   41.4070 C   0  0  0  0  0  0  0  0  0  0  0  0
   78.1896   39.5654   42.3145 O   0  0  0  0  0  0  0  0  0  0  0  0
   76.9893   38.8013   40.3950 C   0  0  0  0  0  0  0  0  0  0  0  0
   75.6410   39.1487   39.7880 C   0  0  0  0  0  0  0  0  0  0  0  0
   73.1830   43.3733   35.3481 H   0  0  0  0  0  0  0  0  0  0  0  0
   70.3088   40.9482   38.6255 H   0  0  0  0  0  0  0  0  0  0  0  0
   69.2829   42.3147   36.7969 H   0  0  0  0  0  0  0  0  0  0  0  0
   70.7053   43.5046   35.1783 H   0  0  0  0  0  0  0  0  0  0  0  0
   76.5036   40.5913   38.4421 H   0  0  0  0  0  0  0  0  0  0  0  0
   77.2259   41.7963   41.9028 H   0  0  0  0  0  0  0  0  0  0  0  0
   77.7648   38.7369   39.6255 H   0  0  0  0  0  0  0  0  0  0  0  0
   76.9299   37.8300   40.8960 H   0  0  0  0  0  0  0  0  0  0  0  0
   75.3657   38.4102   39.0287 H   0  0  0  0  0  0  0  0  0  0  0  0
   74.8804   39.0924   40.5712 H   0  0  0  0  0  0  0  0  0  0  0  0
  1 20  1  0  0  0  0
  1  2  1  0  0  0  0
  1 11  2  0  0  0  0
  2  3  1  0  0  0  0
  2  8  2  0  0  0  0
  3  4  2  0  0  0  0
  3  5  1  0  0  0  0
  5  6  1  0  0  0  0
 12  5  1  0  0  0  0
  6  7  2  0  0  0  0
  6  8  1  0  0  0  0
  8  9  1  0  0  0  0
  9 21  1  0  0  0  0
  9 10  2  0  0  0  0
 10 22  1  0  0  0  0
 10 11  1  0  0  0  0
 11 23  1  0  0  0  0
 12 24  1  0  0  0  0
 12 13  1  0  0  0  0
 12 19  1  0  0  0  0
 13 14  2  0  0  0  0
 13 15  1  0  0  0  0
 15 25  1  0  0  0  0
 15 16  1  0  0  0  0
 16 17  2  0  0  0  0
 16 18  1  0  0  0  0
 18 26  1  0  0  0  0
 18 27  1  0  0  0  0
 18 19  1  0  0  0  0
 19 28  1  0  0  0  0
 19 29  1  0  0  0  0
M  ZZC   1 c1
M  ZZC   2 c2
M  ZZC   3 c3
M  ZZC   4 o1
M  ZZC   5 n1
M  ZZC   6 c4
M  ZZC   7 o2
M  ZZC   8 c5
M  ZZC   9 c6
M  ZZC  10 c7
M  ZZC  11 c8
M  ZZC  12 c9
M  ZZC  13 c10
M  ZZC  14 o3
M  ZZC  15 n2
M  ZZC  16 c11
M  ZZC  17 o4
M  ZZC  18 c12
M  ZZC  19 c13
M  ZZC  20 h11
M  ZZC  21 h61
M  ZZC  22 h71
M  ZZC  23 h81
M  ZZC  24 h91
M  ZZC  25 h21
M  ZZC  26 h121
M  ZZC  27 h122
M  ZZC  28 h131
M  ZZC  29 h132
M  ZZM   1 37
M  ZZI   1 125
M  ZZM   2 37
M  ZZI   2 124
M  ZZM   3 3
M  ZZI   3 121
M  ZZM   4 7
M  ZZI   4 81
M  ZZM   5 10
M  ZZI   5 192
M  ZZM   6 3
M  ZZI   6 121
M  ZZM   7 7
M  ZZI   7 81
M  ZZM   8 37
M  ZZI   8 124
M  ZZM   9 37
M  ZZI   9 125
M  ZZM  10 37
M  ZZI  10 125
M  ZZM  11 37
M  ZZI  11 125
M  ZZM  12 1
M  ZZI  12 113
M  ZZM  13 3
M  ZZI  13 121
M  ZZM  14 7
M  ZZI  14 81
M  ZZM  15 10
M  ZZI  15 191
M  ZZM  16 3
M  ZZI  16 121
M  ZZM  17 7
M  ZZI  17 81
M  ZZM  18 1
M  ZZI  18 112
M  ZZM  19 1
M  ZZI  19 112
M  ZZM  20 5
M  ZZI  20 1
M  ZZM  21 5
M  ZZI  21 1
M  ZZM  22 5
M  ZZI  22 1
M  ZZM  23 5
M  ZZI  23 1
M  ZZM  24 5
M  ZZI  24 1
M  ZZM  25 28
M  ZZI  25 11
M  ZZM  26 5
M  ZZI  26 1
M  ZZM  27 5
M  ZZI  27 1
M  ZZM  28 5
M  ZZI  28 1
M  ZZM  29 5
M  ZZI  29 1
M  END
> <IX>
1

> <NAME>
Cereblon_3MXF_39.pdb

> <Score>
-12.292938

> <Natom>
29

> <Nflex>
1

> <Hbond>
-3.416187

> <Hphob>
-3.573018

> <VwInt>
-19.913195

> <Dsolv>
14.268448

> <SolEl>
10.066938

> <Eintl>
1.186029

> <RecConf>
ND

> <projPath>
Cereblon_maps/

> <NAME_>
Cereblon_3MXF_39.pdb

$$$$
