Cereblon_6Z45_6.pdb
  MOLSOFT 04032206303D

 29 31  0  0  1  0  0  0  0  0999 V2000
   79.8249   43.6045   42.5476 C   0  0  0  0  0  0  0  0  0  0  0  0
   79.0049   42.4897   42.6741 C   0  0  0  0  0  0  0  0  0  0  0  0
   78.1858   42.1952   41.5984 C   0  0  0  0  0  0  0  0  0  0  0  0
   77.2694   41.0762   41.4118 C   0  0  0  0  0  0  0  0  0  0  0  0
   77.0919   40.2136   42.2581 O   0  0  0  0  0  0  0  0  0  0  0  0
   76.7277   41.2199   40.1479 N   0  0  0  0  0  0  0  0  0  0  0  0
   77.2241   42.3469   39.5250 C   0  0  0  0  0  0  0  0  0  0  0  0
   76.9886   42.7652   38.3985 O   0  0  0  0  0  0  0  0  0  0  0  0
   78.1585   42.9585   40.4705 C   0  0  0  0  0  0  0  0  0  0  0  0
   78.9572   44.0750   40.3287 C   0  0  0  0  0  0  0  0  0  0  0  0
   79.8002   44.3841   41.3904 C   0  0  0  0  0  0  0  0  0  0  0  0
   75.7188   40.3655   39.5152 C   0  0  2  0  0  0  0  0  0  0  0  0
   74.3392   40.9350   39.8041 C   0  0  0  0  0  0  0  0  0  0  0  0
   74.1519   42.1218   40.0154 O   0  0  0  0  0  0  0  0  0  0  0  0
   73.2891   40.0524   39.7324 N   0  0  0  0  0  0  0  0  0  0  0  0
   73.3262   38.7080   39.4545 C   0  0  0  0  0  0  0  0  0  0  0  0
   72.3095   38.0364   39.3909 O   0  0  0  0  0  0  0  0  0  0  0  0
   74.6908   38.1253   39.1787 C   0  0  0  0  0  0  0  0  0  0  0  0
   75.7725   38.8945   39.9164 C   0  0  0  0  0  0  0  0  0  0  0  0
   80.4928   43.8731   43.3612 H   0  0  0  0  0  0  0  0  0  0  0  0
   79.0159   41.8742   43.5693 H   0  0  0  0  0  0  0  0  0  0  0  0
   78.9272   44.6773   39.4285 H   0  0  0  0  0  0  0  0  0  0  0  0
   80.4486   45.2500   41.3215 H   0  0  0  0  0  0  0  0  0  0  0  0
   75.8598   40.4534   38.4360 H   0  0  0  0  0  0  0  0  0  0  0  0
   72.3710   40.4468   39.8959 H   0  0  0  0  0  0  0  0  0  0  0  0
   74.6963   37.0800   39.5038 H   0  0  0  0  0  0  0  0  0  0  0  0
   74.8539   38.1471   38.0968 H   0  0  0  0  0  0  0  0  0  0  0  0
   75.6092   38.7748   40.9911 H   0  0  0  0  0  0  0  0  0  0  0  0
   76.7575   38.4723   39.6921 H   0  0  0  0  0  0  0  0  0  0  0  0
  1 20  1  0  0  0  0
  1  2  1  0  0  0  0
  1 11  2  0  0  0  0
  2 21  1  0  0  0  0
  2  3  2  0  0  0  0
  3  4  1  0  0  0  0
  3  9  1  0  0  0  0
  4  5  2  0  0  0  0
  4  6  1  0  0  0  0
  6  7  1  0  0  0  0
 12  6  1  0  0  0  0
  7  8  2  0  0  0  0
  7  9  1  0  0  0  0
  9 10  2  0  0  0  0
 10 22  1  0  0  0  0
 10 11  1  0  0  0  0
 11 23  1  0  0  0  0
 12 24  1  0  0  0  0
 12 13  1  0  0  0  0
 12 19  1  0  0  0  0
 13 14  2  0  0  0  0
 13 15  1  0  0  0  0
 15 25  1  0  0  0  0
 15 16  1  0  0  0  0
 16 17  2  0  0  0  0
 16 18  1  0  0  0  0
 18 26  1  0  0  0  0
 18 27  1  0  0  0  0
 18 19  1  0  0  0  0
 19 28  1  0  0  0  0
 19 29  1  0  0  0  0
M  ZZC   1 c1
M  ZZC   2 c2
M  ZZC   3 c3
M  ZZC   4 c4
M  ZZC   5 o1
M  ZZC   6 n1
M  ZZC   7 c5
M  ZZC   8 o2
M  ZZC   9 c6
M  ZZC  10 c7
M  ZZC  11 c8
M  ZZC  12 c9
M  ZZC  13 c10
M  ZZC  14 o3
M  ZZC  15 n2
M  ZZC  16 c11
M  ZZC  17 o4
M  ZZC  18 c12
M  ZZC  19 c13
M  ZZC  20 h11
M  ZZC  21 h21
M  ZZC  22 h71
M  ZZC  23 h81
M  ZZC  24 h91
M  ZZC  25 h01
M  ZZC  26 h121
M  ZZC  27 h122
M  ZZC  28 h131
M  ZZC  29 h132
M  ZZM   1 37
M  ZZI   1 125
M  ZZM   2 37
M  ZZI   2 125
M  ZZM   3 37
M  ZZI   3 124
M  ZZM   4 3
M  ZZI   4 121
M  ZZM   5 7
M  ZZI   5 81
M  ZZM   6 10
M  ZZI   6 192
M  ZZM   7 3
M  ZZI   7 121
M  ZZM   8 7
M  ZZI   8 81
M  ZZM   9 37
M  ZZI   9 124
M  ZZM  10 37
M  ZZI  10 125
M  ZZM  11 37
M  ZZI  11 125
M  ZZM  12 1
M  ZZI  12 113
M  ZZM  13 3
M  ZZI  13 121
M  ZZM  14 7
M  ZZI  14 81
M  ZZM  15 10
M  ZZI  15 191
M  ZZM  16 3
M  ZZI  16 121
M  ZZM  17 7
M  ZZI  17 81
M  ZZM  18 1
M  ZZI  18 112
M  ZZM  19 1
M  ZZI  19 112
M  ZZM  20 5
M  ZZI  20 1
M  ZZM  21 5
M  ZZI  21 1
M  ZZM  22 5
M  ZZI  22 1
M  ZZM  23 5
M  ZZI  23 1
M  ZZM  24 5
M  ZZI  24 1
M  ZZM  25 28
M  ZZI  25 11
M  ZZM  26 5
M  ZZI  26 1
M  ZZM  27 5
M  ZZI  27 1
M  ZZM  28 5
M  ZZI  28 1
M  ZZM  29 5
M  ZZI  29 1
M  END
> <IX>
1

> <NAME>
Cereblon_6Z45_6.pdb

> <Score>
-19.132988

> <Natom>
29

> <Nflex>
1

> <Hbond>
-3.283341

> <Hphob>
-3.489476

> <VwInt>
-22.853226

> <Dsolv>
12.070989

> <SolEl>
5.782541

> <Eintl>
1.492204

> <RecConf>
ND

> <projPath>
Cereblon_maps/

> <NAME_>
Cereblon_6Z45_6.pdb

$$$$
