Cereblon_3HLL_4.pdb
  MOLSOFT 04032206213D

 31 33  0  0  1  0  0  0  0  0999 V2000
   77.6264   41.8917   41.9166 N   0  0  0  0  0  0  0  0  0  0  0  0
   77.2722   40.5847   41.5483 C   0  0  0  0  0  0  0  0  0  0  0  0
   76.3457   40.2978   40.5527 C   0  0  0  0  0  0  0  0  0  0  0  0
   75.4454   41.1752   39.7971 C   0  0  0  0  0  0  0  0  0  0  0  0
   75.2898   42.3657   40.0200 O   0  0  0  0  0  0  0  0  0  0  0  0
   74.8011   40.3811   38.8737 N   0  0  0  0  0  0  0  0  0  0  0  0
   75.1000   39.0542   39.0835 C   0  0  0  0  0  0  0  0  0  0  0  0
   74.6199   38.0595   38.5597 O   0  0  0  0  0  0  0  0  0  0  0  0
   76.1160   39.0208   40.1320 C   0  0  0  0  0  0  0  0  0  0  0  0
   76.7739   37.9297   40.6657 C   0  0  0  0  0  0  0  0  0  0  0  0
   77.6966   38.1889   41.6686 C   0  0  0  0  0  0  0  0  0  0  0  0
   77.9402   39.4931   42.0950 C   0  0  0  0  0  0  0  0  0  0  0  0
   73.7571   40.8302   37.9488 C   0  0  2  0  0  0  0  0  0  0  0  0
   74.1801   42.0679   37.1614 C   0  0  0  0  0  0  0  0  0  0  0  0
   75.3466   42.3469   36.9226 O   0  0  0  0  0  0  0  0  0  0  0  0
   73.1501   42.8292   36.6578 N   0  0  0  0  0  0  0  0  0  0  0  0
   71.7953   42.6466   36.8029 C   0  0  0  0  0  0  0  0  0  0  0  0
   70.9843   43.3888   36.2700 O   0  0  0  0  0  0  0  0  0  0  0  0
   71.3727   41.4480   37.6188 C   0  0  0  0  0  0  0  0  0  0  0  0
   72.4255   41.0641   38.6480 C   0  0  0  0  0  0  0  0  0  0  0  0
   78.1769   42.0418   42.7596 H   0  0  0  0  0  0  0  0  0  0  0  0
   77.1085   42.6836   41.5337 H   0  0  0  0  0  0  0  0  0  0  0  0
   76.5782   36.9189   40.3202 H   0  0  0  0  0  0  0  0  0  0  0  0
   78.2427   37.3672   42.1219 H   0  0  0  0  0  0  0  0  0  0  0  0
   78.6808   39.6585   42.8709 H   0  0  0  0  0  0  0  0  0  0  0  0
   73.6178   40.0315   37.2109 H   0  0  0  0  0  0  0  0  0  0  0  0
   73.4212   43.6368   36.1139 H   0  0  0  0  0  0  0  0  0  0  0  0
   70.4329   41.6883   38.1245 H   0  0  0  0  0  0  0  0  0  0  0  0
   71.1818   40.6189   36.9295 H   0  0  0  0  0  0  0  0  0  0  0  0
   72.5248   41.8461   39.4076 H   0  0  0  0  0  0  0  0  0  0  0  0
   72.1075   40.1604   39.1783 H   0  0  0  0  0  0  0  0  0  0  0  0
  1  2  1  0  0  0  0
  1 21  1  0  0  0  0
  1 22  1  0  0  0  0
  2  3  1  0  0  0  0
  2 12  2  0  0  0  0
  3  9  2  0  0  0  0
  3  4  1  0  0  0  0
  4  5  2  0  0  0  0
  4  6  1  0  0  0  0
  6  7  1  0  0  0  0
 13  6  1  0  0  0  0
  7  8  2  0  0  0  0
  7  9  1  0  0  0  0
  9 10  1  0  0  0  0
 10 23  1  0  0  0  0
 10 11  2  0  0  0  0
 11 12  1  0  0  0  0
 11 24  1  0  0  0  0
 12 25  1  0  0  0  0
 13 26  1  0  0  0  0
 13 14  1  0  0  0  0
 13 20  1  0  0  0  0
 14 15  2  0  0  0  0
 14 16  1  0  0  0  0
 16 27  1  0  0  0  0
 16 17  1  0  0  0  0
 17 18  2  0  0  0  0
 17 19  1  0  0  0  0
 19 28  1  0  0  0  0
 19 29  1  0  0  0  0
 19 20  1  0  0  0  0
 20 30  1  0  0  0  0
 20 31  1  0  0  0  0
M  ZZC   1 n1
M  ZZC   2 c1
M  ZZC   3 c2
M  ZZC   4 c3
M  ZZC   5 o1
M  ZZC   6 n2
M  ZZC   7 c4
M  ZZC   8 o2
M  ZZC   9 c5
M  ZZC  10 c6
M  ZZC  11 c7
M  ZZC  12 c8
M  ZZC  13 c9
M  ZZC  14 c10
M  ZZC  15 o3
M  ZZC  16 n3
M  ZZC  17 c11
M  ZZC  18 o4
M  ZZC  19 c12
M  ZZC  20 c13
M  ZZC  21 h11
M  ZZC  22 h12
M  ZZC  23 h61
M  ZZC  24 h71
M  ZZC  25 h81
M  ZZC  26 h91
M  ZZC  27 h31
M  ZZC  28 h121
M  ZZC  29 h122
M  ZZC  30 h131
M  ZZC  31 h132
M  ZZM   1 40
M  ZZI   1 224
M  ZZM   2 37
M  ZZI   2 124
M  ZZM   3 37
M  ZZI   3 124
M  ZZM   4 3
M  ZZI   4 121
M  ZZM   5 7
M  ZZI   5 81
M  ZZM   6 10
M  ZZI   6 192
M  ZZM   7 3
M  ZZI   7 121
M  ZZM   8 7
M  ZZI   8 81
M  ZZM   9 37
M  ZZI   9 124
M  ZZM  10 37
M  ZZI  10 125
M  ZZM  11 37
M  ZZI  11 125
M  ZZM  12 37
M  ZZI  12 125
M  ZZM  13 1
M  ZZI  13 113
M  ZZM  14 3
M  ZZI  14 121
M  ZZM  15 7
M  ZZI  15 81
M  ZZM  16 10
M  ZZI  16 191
M  ZZM  17 3
M  ZZI  17 121
M  ZZM  18 7
M  ZZI  18 81
M  ZZM  19 1
M  ZZI  19 112
M  ZZM  20 1
M  ZZI  20 112
M  ZZM  21 28
M  ZZI  21 11
M  ZZM  22 28
M  ZZI  22 11
M  ZZM  23 5
M  ZZI  23 1
M  ZZM  24 5
M  ZZI  24 1
M  ZZM  25 5
M  ZZI  25 1
M  ZZM  26 5
M  ZZI  26 1
M  ZZM  27 28
M  ZZI  27 11
M  ZZM  28 5
M  ZZI  28 1
M  ZZM  29 5
M  ZZI  29 1
M  ZZM  30 5
M  ZZI  30 1
M  ZZM  31 5
M  ZZI  31 1
M  END
> <IX>
1

> <NAME>
Cereblon_3HLL_4.pdb

> <Score>
-15.237177

> <Natom>
31

> <Nflex>
1

> <Hbond>
-4.143436

> <Hphob>
-3.541961

> <VwInt>
-23.359227

> <Dsolv>
17.422374

> <SolEl>
8.156174

> <Eintl>
3.213669

> <RecConf>
ND

> <projPath>
Cereblon_maps/

> <NAME_>
Cereblon_3HLL_4.pdb

$$$$
