Cereblon_3HLL_5.pdb
  MOLSOFT 04032206213D

 33 35  0  0  1  0  0  0  0  0999 V2000
   78.2890   39.4974   42.0788 N   0  0  0  0  0  0  0  0  0  0  0  0
   77.4028   38.4790   41.8469 C   0  0  0  0  0  0  0  0  0  0  0  0
   77.4124   37.4316   42.4750 O   0  0  0  0  0  0  0  0  0  0  0  0
   76.4077   38.7022   40.7595 C   0  0  0  0  0  0  0  0  0  0  0  0
   75.9542   39.9915   40.4640 C   0  0  0  0  0  0  0  0  0  0  0  0
   74.9979   40.0978   39.4722 C   0  0  0  0  0  0  0  0  0  0  0  0
   74.3203   41.2889   38.9761 C   0  0  0  0  0  0  0  0  0  0  0  0
   74.5151   42.4000   39.4455 O   0  0  0  0  0  0  0  0  0  0  0  0
   73.4773   40.8711   37.9678 N   0  0  0  0  0  0  0  0  0  0  0  0
   73.5412   39.5013   37.8101 C   0  0  0  0  0  0  0  0  0  0  0  0
   72.9347   38.7750   37.0366 O   0  0  0  0  0  0  0  0  0  0  0  0
   74.5146   39.0218   38.7932 C   0  0  0  0  0  0  0  0  0  0  0  0
   74.9360   37.7355   39.0760 C   0  0  0  0  0  0  0  0  0  0  0  0
   75.8893   37.5880   40.0802 C   0  0  0  0  0  0  0  0  0  0  0  0
   72.6089   41.7828   37.2199 C   0  0  2  0  0  0  0  0  0  0  0  0
   71.1427   41.6017   37.6005 C   0  0  0  0  0  0  0  0  0  0  0  0
   70.7595   41.0111   38.5993 O   0  0  0  0  0  0  0  0  0  0  0  0
   70.2436   42.1945   36.7434 N   0  0  0  0  0  0  0  0  0  0  0  0
   70.4962   42.8030   35.5403 C   0  0  0  0  0  0  0  0  0  0  0  0
   69.6063   43.3299   34.8927 O   0  0  0  0  0  0  0  0  0  0  0  0
   71.9384   42.8227   35.0914 C   0  0  0  0  0  0  0  0  0  0  0  0
   72.7422   41.6892   35.7095 C   0  0  0  0  0  0  0  0  0  0  0  0
   78.9645   39.4049   42.8311 H   0  0  0  0  0  0  0  0  0  0  0  0
   78.3396   40.3357   41.5103 H   0  0  0  0  0  0  0  0  0  0  0  0
   76.2963   40.8760   40.9927 H   0  0  0  0  0  0  0  0  0  0  0  0
   74.5401   36.8778   38.5394 H   0  0  0  0  0  0  0  0  0  0  0  0
   76.2359   36.5883   40.3272 H   0  0  0  0  0  0  0  0  0  0  0  0
   72.8948   42.7965   37.5125 H   0  0  0  0  0  0  0  0  0  0  0  0
   69.2674   42.1491   37.0100 H   0  0  0  0  0  0  0  0  0  0  0  0
   71.9659   42.7442   34.0004 H   0  0  0  0  0  0  0  0  0  0  0  0
   72.3582   43.7921   35.3789 H   0  0  0  0  0  0  0  0  0  0  0  0
   73.7927   41.7729   35.4164 H   0  0  0  0  0  0  0  0  0  0  0  0
   72.3760   40.7258   35.3378 H   0  0  0  0  0  0  0  0  0  0  0  0
  1  2  1  0  0  0  0
  1 23  1  0  0  0  0
  1 24  1  0  0  0  0
  2  4  1  0  0  0  0
  2  3  2  0  0  0  0
  4  5  1  0  0  0  0
  4 14  2  0  0  0  0
  5 25  1  0  0  0  0
  5  6  2  0  0  0  0
  6 12  1  0  0  0  0
  6  7  1  0  0  0  0
  7  8  2  0  0  0  0
  7  9  1  0  0  0  0
  9 10  1  0  0  0  0
 15  9  1  0  0  0  0
 10 11  2  0  0  0  0
 10 12  1  0  0  0  0
 12 13  2  0  0  0  0
 13 14  1  0  0  0  0
 13 26  1  0  0  0  0
 14 27  1  0  0  0  0
 15 28  1  0  0  0  0
 15 16  1  0  0  0  0
 15 22  1  0  0  0  0
 16 17  2  0  0  0  0
 16 18  1  0  0  0  0
 18 29  1  0  0  0  0
 18 19  1  0  0  0  0
 19 20  2  0  0  0  0
 19 21  1  0  0  0  0
 21 30  1  0  0  0  0
 21 31  1  0  0  0  0
 21 22  1  0  0  0  0
 22 32  1  0  0  0  0
 22 33  1  0  0  0  0
M  ZZC   1 n1
M  ZZC   2 c1
M  ZZC   3 o1
M  ZZC   4 c2
M  ZZC   5 c3
M  ZZC   6 c4
M  ZZC   7 c5
M  ZZC   8 o2
M  ZZC   9 n2
M  ZZC  10 c6
M  ZZC  11 o3
M  ZZC  12 c7
M  ZZC  13 c8
M  ZZC  14 c9
M  ZZC  15 c10
M  ZZC  16 c11
M  ZZC  17 o4
M  ZZC  18 n3
M  ZZC  19 c12
M  ZZC  20 o5
M  ZZC  21 c13
M  ZZC  22 c14
M  ZZC  23 h11
M  ZZC  24 h12
M  ZZC  25 h31
M  ZZC  26 h81
M  ZZC  27 h91
M  ZZC  28 h101
M  ZZC  29 h01
M  ZZC  30 h131
M  ZZC  31 h132
M  ZZC  32 h141
M  ZZC  33 h142
M  ZZM   1 10
M  ZZI   1 212
M  ZZM   2 3
M  ZZI   2 121
M  ZZM   3 7
M  ZZI   3 81
M  ZZM   4 37
M  ZZI   4 124
M  ZZM   5 37
M  ZZI   5 125
M  ZZM   6 37
M  ZZI   6 124
M  ZZM   7 3
M  ZZI   7 121
M  ZZM   8 7
M  ZZI   8 81
M  ZZM   9 10
M  ZZI   9 192
M  ZZM  10 3
M  ZZI  10 121
M  ZZM  11 7
M  ZZI  11 81
M  ZZM  12 37
M  ZZI  12 124
M  ZZM  13 37
M  ZZI  13 125
M  ZZM  14 37
M  ZZI  14 125
M  ZZM  15 1
M  ZZI  15 113
M  ZZM  16 3
M  ZZI  16 121
M  ZZM  17 7
M  ZZI  17 81
M  ZZM  18 10
M  ZZI  18 191
M  ZZM  19 3
M  ZZI  19 121
M  ZZM  20 7
M  ZZI  20 81
M  ZZM  21 1
M  ZZI  21 112
M  ZZM  22 1
M  ZZI  22 112
M  ZZM  23 28
M  ZZI  23 11
M  ZZM  24 28
M  ZZI  24 11
M  ZZM  25 5
M  ZZI  25 1
M  ZZM  26 5
M  ZZI  26 1
M  ZZM  27 5
M  ZZI  27 1
M  ZZM  28 5
M  ZZI  28 1
M  ZZM  29 28
M  ZZI  29 11
M  ZZM  30 5
M  ZZI  30 1
M  ZZM  31 5
M  ZZI  31 1
M  ZZM  32 5
M  ZZI  32 1
M  ZZM  33 5
M  ZZI  33 1
M  END
> <IX>
1

> <NAME>
Cereblon_3HLL_5.pdb

> <Score>
-14.371838

> <Natom>
33

> <Nflex>
1

> <Hbond>
-4.839494

> <Hphob>
-3.023927

> <VwInt>
-22.758004

> <Dsolv>
17.009907

> <SolEl>
12.988199

> <Eintl>
1.210791

> <RecConf>
ND

> <projPath>
Cereblon_maps/

> <NAME_>
Cereblon_3HLL_5.pdb

$$$$
