Cereblon_3LQ5_12.pdb
  MOLSOFT 04032206213D

 29 31  0  0  1  0  0  0  0  0999 V2000
   79.0016   42.4889   42.6715 C   0  0  0  0  0  0  0  0  0  0  0  0
   78.1819   42.1953   41.5961 C   0  0  0  0  0  0  0  0  0  0  0  0
   77.2651   41.0770   41.4100 C   0  0  0  0  0  0  0  0  0  0  0  0
   77.0849   40.2157   42.2571 O   0  0  0  0  0  0  0  0  0  0  0  0
   76.7242   41.2196   40.1453 N   0  0  0  0  0  0  0  0  0  0  0  0
   77.2211   42.3463   39.5218 C   0  0  0  0  0  0  0  0  0  0  0  0
   76.9871   42.7645   38.3953 O   0  0  0  0  0  0  0  0  0  0  0  0
   78.1555   42.9580   40.4671 C   0  0  0  0  0  0  0  0  0  0  0  0
   78.9556   44.0734   40.3250 C   0  0  0  0  0  0  0  0  0  0  0  0
   79.7985   44.3821   41.3870 C   0  0  0  0  0  0  0  0  0  0  0  0
   79.8223   43.6032   42.5444 C   0  0  0  0  0  0  0  0  0  0  0  0
   75.7160   40.3649   39.5125 C   0  0  2  0  0  0  0  0  0  0  0  0
   74.3363   40.9333   39.8033 C   0  0  0  0  0  0  0  0  0  0  0  0
   74.1492   42.1195   40.0177 O   0  0  0  0  0  0  0  0  0  0  0  0
   73.2866   40.0505   39.7292 N   0  0  0  0  0  0  0  0  0  0  0  0
   73.3243   38.7063   39.4509 C   0  0  0  0  0  0  0  0  0  0  0  0
   72.3084   38.0337   39.3873 O   0  0  0  0  0  0  0  0  0  0  0  0
   74.6892   38.1249   39.1755 C   0  0  0  0  0  0  0  0  0  0  0  0
   75.7713   38.8947   39.9128 C   0  0  0  0  0  0  0  0  0  0  0  0
   79.0113   41.8730   43.5666 H   0  0  0  0  0  0  0  0  0  0  0  0
   78.9271   44.6740   39.4236 H   0  0  0  0  0  0  0  0  0  0  0  0
   80.4487   45.2464   41.3163 H   0  0  0  0  0  0  0  0  0  0  0  0
   80.4908   43.8695   43.3583 H   0  0  0  0  0  0  0  0  0  0  0  0
   75.8545   40.4548   38.4330 H   0  0  0  0  0  0  0  0  0  0  0  0
   72.3677   40.4430   39.8923 H   0  0  0  0  0  0  0  0  0  0  0  0
   74.6944   37.0795   39.5000 H   0  0  0  0  0  0  0  0  0  0  0  0
   74.8509   38.1472   38.0933 H   0  0  0  0  0  0  0  0  0  0  0  0
   75.6087   38.7740   40.9876 H   0  0  0  0  0  0  0  0  0  0  0  0
   76.7567   38.4737   39.6884 H   0  0  0  0  0  0  0  0  0  0  0  0
  1 20  1  0  0  0  0
  1  2  1  0  0  0  0
  1 11  2  0  0  0  0
  2  3  1  0  0  0  0
  2  8  2  0  0  0  0
  3  4  2  0  0  0  0
  3  5  1  0  0  0  0
  5  6  1  0  0  0  0
 12  5  1  0  0  0  0
  6  7  2  0  0  0  0
  6  8  1  0  0  0  0
  8  9  1  0  0  0  0
  9 21  1  0  0  0  0
  9 10  2  0  0  0  0
 10 22  1  0  0  0  0
 10 11  1  0  0  0  0
 11 23  1  0  0  0  0
 12 24  1  0  0  0  0
 12 13  1  0  0  0  0
 12 19  1  0  0  0  0
 13 14  2  0  0  0  0
 13 15  1  0  0  0  0
 15 25  1  0  0  0  0
 15 16  1  0  0  0  0
 16 17  2  0  0  0  0
 16 18  1  0  0  0  0
 18 26  1  0  0  0  0
 18 27  1  0  0  0  0
 18 19  1  0  0  0  0
 19 28  1  0  0  0  0
 19 29  1  0  0  0  0
M  ZZC   1 c1
M  ZZC   2 c2
M  ZZC   3 c3
M  ZZC   4 o1
M  ZZC   5 n1
M  ZZC   6 c4
M  ZZC   7 o2
M  ZZC   8 c5
M  ZZC   9 c6
M  ZZC  10 c7
M  ZZC  11 c8
M  ZZC  12 c9
M  ZZC  13 c10
M  ZZC  14 o3
M  ZZC  15 n2
M  ZZC  16 c11
M  ZZC  17 o4
M  ZZC  18 c12
M  ZZC  19 c13
M  ZZC  20 h11
M  ZZC  21 h61
M  ZZC  22 h71
M  ZZC  23 h81
M  ZZC  24 h91
M  ZZC  25 h21
M  ZZC  26 h121
M  ZZC  27 h122
M  ZZC  28 h131
M  ZZC  29 h132
M  ZZM   1 37
M  ZZI   1 125
M  ZZM   2 37
M  ZZI   2 124
M  ZZM   3 3
M  ZZI   3 121
M  ZZM   4 7
M  ZZI   4 81
M  ZZM   5 10
M  ZZI   5 192
M  ZZM   6 3
M  ZZI   6 121
M  ZZM   7 7
M  ZZI   7 81
M  ZZM   8 37
M  ZZI   8 124
M  ZZM   9 37
M  ZZI   9 125
M  ZZM  10 37
M  ZZI  10 125
M  ZZM  11 37
M  ZZI  11 125
M  ZZM  12 1
M  ZZI  12 113
M  ZZM  13 3
M  ZZI  13 121
M  ZZM  14 7
M  ZZI  14 81
M  ZZM  15 10
M  ZZI  15 191
M  ZZM  16 3
M  ZZI  16 121
M  ZZM  17 7
M  ZZI  17 81
M  ZZM  18 1
M  ZZI  18 112
M  ZZM  19 1
M  ZZI  19 112
M  ZZM  20 5
M  ZZI  20 1
M  ZZM  21 5
M  ZZI  21 1
M  ZZM  22 5
M  ZZI  22 1
M  ZZM  23 5
M  ZZI  23 1
M  ZZM  24 5
M  ZZI  24 1
M  ZZM  25 28
M  ZZI  25 11
M  ZZM  26 5
M  ZZI  26 1
M  ZZM  27 5
M  ZZI  27 1
M  ZZM  28 5
M  ZZI  28 1
M  ZZM  29 5
M  ZZI  29 1
M  END
> <IX>
1

> <NAME>
Cereblon_3LQ5_12.pdb

> <Score>
-19.484288

> <Natom>
29

> <Nflex>
1

> <Hbond>
-3.37285

> <Hphob>
-3.616042

> <VwInt>
-22.689019

> <Dsolv>
11.994323

> <SolEl>
5.573113

> <Eintl>
1.477988

> <RecConf>
ND

> <projPath>
Cereblon_maps/

> <NAME_>
Cereblon_3LQ5_12.pdb

$$$$
