Cereblon_5J8O_11.pdb
  MOLSOFT 04032206253D

 31 33  0  0  1  0  0  0  0  0999 V2000
   78.7275   41.7145   43.8939 N   0  0  0  0  0  0  0  0  0  0  0  0
   78.7904   42.4967   42.7293 C   0  0  0  0  0  0  0  0  0  0  0  0
   78.0721   42.1755   41.5896 C   0  0  0  0  0  0  0  0  0  0  0  0
   77.1604   41.0609   41.3686 C   0  0  0  0  0  0  0  0  0  0  0  0
   76.9425   40.1994   42.2068 O   0  0  0  0  0  0  0  0  0  0  0  0
   76.6659   41.2055   40.0878 N   0  0  0  0  0  0  0  0  0  0  0  0
   77.2006   42.3209   39.4764 C   0  0  0  0  0  0  0  0  0  0  0  0
   77.0004   42.7412   38.3442 O   0  0  0  0  0  0  0  0  0  0  0  0
   78.1125   42.9225   40.4513 C   0  0  0  0  0  0  0  0  0  0  0  0
   78.9333   44.0258   40.3385 C   0  0  0  0  0  0  0  0  0  0  0  0
   79.7227   44.3336   41.4408 C   0  0  0  0  0  0  0  0  0  0  0  0
   79.6559   43.5806   42.6151 C   0  0  0  0  0  0  0  0  0  0  0  0
   75.6516   40.3702   39.4410 C   0  0  2  0  0  0  0  0  0  0  0  0
   74.2794   40.9558   39.7306 C   0  0  0  0  0  0  0  0  0  0  0  0
   74.1120   42.1380   39.9798 O   0  0  0  0  0  0  0  0  0  0  0  0
   73.2160   40.0942   39.6148 N   0  0  0  0  0  0  0  0  0  0  0  0
   73.2374   38.7543   39.3127 C   0  0  0  0  0  0  0  0  0  0  0  0
   72.2109   38.1040   39.2052 O   0  0  0  0  0  0  0  0  0  0  0  0
   74.5994   38.1495   39.0688 C   0  0  0  0  0  0  0  0  0  0  0  0
   75.6770   38.8968   39.8348 C   0  0  0  0  0  0  0  0  0  0  0  0
   78.9773   42.1375   44.7866 H   0  0  0  0  0  0  0  0  0  0  0  0
   78.0479   40.9524   43.9165 H   0  0  0  0  0  0  0  0  0  0  0  0
   78.9627   44.6151   39.4297 H   0  0  0  0  0  0  0  0  0  0  0  0
   80.3970   45.1814   41.3927 H   0  0  0  0  0  0  0  0  0  0  0  0
   80.2872   43.8530   43.4554 H   0  0  0  0  0  0  0  0  0  0  0  0
   75.7986   40.4665   38.3640 H   0  0  0  0  0  0  0  0  0  0  0  0
   72.3013   40.5007   39.7675 H   0  0  0  0  0  0  0  0  0  0  0  0
   74.5786   37.1029   39.3890 H   0  0  0  0  0  0  0  0  0  0  0  0
   74.7911   38.1703   37.9916 H   0  0  0  0  0  0  0  0  0  0  0  0
   76.6610   38.4616   39.6326 H   0  0  0  0  0  0  0  0  0  0  0  0
   75.4875   38.7726   40.9048 H   0  0  0  0  0  0  0  0  0  0  0  0
  1  2  1  0  0  0  0
  1 21  1  0  0  0  0
  1 22  1  0  0  0  0
  2  3  1  0  0  0  0
  2 12  2  0  0  0  0
  3  9  2  0  0  0  0
  3  4  1  0  0  0  0
  4  5  2  0  0  0  0
  4  6  1  0  0  0  0
  6  7  1  0  0  0  0
 13  6  1  0  0  0  0
  7  8  2  0  0  0  0
  7  9  1  0  0  0  0
  9 10  1  0  0  0  0
 10 23  1  0  0  0  0
 10 11  2  0  0  0  0
 11 12  1  0  0  0  0
 11 24  1  0  0  0  0
 12 25  1  0  0  0  0
 13 26  1  0  0  0  0
 13 14  1  0  0  0  0
 13 20  1  0  0  0  0
 14 15  2  0  0  0  0
 14 16  1  0  0  0  0
 16 27  1  0  0  0  0
 16 17  1  0  0  0  0
 17 18  2  0  0  0  0
 17 19  1  0  0  0  0
 19 28  1  0  0  0  0
 19 29  1  0  0  0  0
 19 20  1  0  0  0  0
 20 30  1  0  0  0  0
 20 31  1  0  0  0  0
M  ZZC   1 n1
M  ZZC   2 c1
M  ZZC   3 c2
M  ZZC   4 c3
M  ZZC   5 o1
M  ZZC   6 n2
M  ZZC   7 c4
M  ZZC   8 o2
M  ZZC   9 c5
M  ZZC  10 c6
M  ZZC  11 c7
M  ZZC  12 c8
M  ZZC  13 c9
M  ZZC  14 c10
M  ZZC  15 o3
M  ZZC  16 n3
M  ZZC  17 c11
M  ZZC  18 o4
M  ZZC  19 c12
M  ZZC  20 c13
M  ZZC  21 h11
M  ZZC  22 h12
M  ZZC  23 h61
M  ZZC  24 h71
M  ZZC  25 h81
M  ZZC  26 h91
M  ZZC  27 h31
M  ZZC  28 h121
M  ZZC  29 h122
M  ZZC  30 h131
M  ZZC  31 h132
M  ZZM   1 40
M  ZZI   1 224
M  ZZM   2 37
M  ZZI   2 124
M  ZZM   3 37
M  ZZI   3 124
M  ZZM   4 3
M  ZZI   4 121
M  ZZM   5 7
M  ZZI   5 81
M  ZZM   6 10
M  ZZI   6 192
M  ZZM   7 3
M  ZZI   7 121
M  ZZM   8 7
M  ZZI   8 81
M  ZZM   9 37
M  ZZI   9 124
M  ZZM  10 37
M  ZZI  10 125
M  ZZM  11 37
M  ZZI  11 125
M  ZZM  12 37
M  ZZI  12 125
M  ZZM  13 1
M  ZZI  13 113
M  ZZM  14 3
M  ZZI  14 121
M  ZZM  15 7
M  ZZI  15 81
M  ZZM  16 10
M  ZZI  16 191
M  ZZM  17 3
M  ZZI  17 121
M  ZZM  18 7
M  ZZI  18 81
M  ZZM  19 1
M  ZZI  19 112
M  ZZM  20 1
M  ZZI  20 112
M  ZZM  21 28
M  ZZI  21 11
M  ZZM  22 28
M  ZZI  22 11
M  ZZM  23 5
M  ZZI  23 1
M  ZZM  24 5
M  ZZI  24 1
M  ZZM  25 5
M  ZZI  25 1
M  ZZM  26 5
M  ZZI  26 1
M  ZZM  27 28
M  ZZI  27 11
M  ZZM  28 5
M  ZZI  28 1
M  ZZM  29 5
M  ZZI  29 1
M  ZZM  30 5
M  ZZI  30 1
M  ZZM  31 5
M  ZZI  31 1
M  END
> <IX>
1

> <NAME>
Cereblon_5J8O_11.pdb

> <Score>
-21.536569

> <Natom>
31

> <Nflex>
1

> <Hbond>
-4.855693

> <Hphob>
-3.573397

> <VwInt>
-24.068608

> <Dsolv>
15.135176

> <SolEl>
6.30101

> <Eintl>
1.835118

> <RecConf>
ND

> <projPath>
Cereblon_maps/

> <NAME_>
Cereblon_5J8O_11.pdb

$$$$
