Cereblon_3IK3_3.pdb
  MOLSOFT 04032206213D

 31 33  0  0  1  0  0  0  0  0999 V2000
   78.8166   41.6684   43.8055 N   0  0  0  0  0  0  0  0  0  0  0  0
   78.8917   42.4284   42.6283 C   0  0  0  0  0  0  0  0  0  0  0  0
   78.0903   42.1592   41.5321 C   0  0  0  0  0  0  0  0  0  0  0  0
   77.1680   41.0497   41.3264 C   0  0  0  0  0  0  0  0  0  0  0  0
   76.9914   40.1625   42.1480 O   0  0  0  0  0  0  0  0  0  0  0  0
   76.6251   41.2187   40.0677 N   0  0  0  0  0  0  0  0  0  0  0  0
   77.1541   42.3341   39.4503 C   0  0  0  0  0  0  0  0  0  0  0  0
   76.9498   42.7485   38.3166 O   0  0  0  0  0  0  0  0  0  0  0  0
   78.0866   42.9292   40.4090 C   0  0  0  0  0  0  0  0  0  0  0  0
   78.9032   44.0348   40.2866 C   0  0  0  0  0  0  0  0  0  0  0  0
   79.7264   44.3290   41.3679 C   0  0  0  0  0  0  0  0  0  0  0  0
   79.7118   43.5478   42.5250 C   0  0  0  0  0  0  0  0  0  0  0  0
   75.6122   40.3779   39.4254 C   0  0  2  0  0  0  0  0  0  0  0  0
   74.2396   40.9581   39.7209 C   0  0  0  0  0  0  0  0  0  0  0  0
   74.0698   42.1367   39.9850 O   0  0  0  0  0  0  0  0  0  0  0  0
   73.1782   40.0963   39.5894 N   0  0  0  0  0  0  0  0  0  0  0  0
   73.2040   38.7585   39.2776 C   0  0  0  0  0  0  0  0  0  0  0  0
   72.1779   38.1112   39.1485 O   0  0  0  0  0  0  0  0  0  0  0  0
   74.5686   38.1511   39.0554 C   0  0  0  0  0  0  0  0  0  0  0  0
   75.6418   38.9046   39.8201 C   0  0  0  0  0  0  0  0  0  0  0  0
   79.5561   41.7374   44.5017 H   0  0  0  0  0  0  0  0  0  0  0  0
   78.2480   40.8198   43.7976 H   0  0  0  0  0  0  0  0  0  0  0  0
   78.8964   44.6431   39.3898 H   0  0  0  0  0  0  0  0  0  0  0  0
   80.3848   45.1892   41.3176 H   0  0  0  0  0  0  0  0  0  0  0  0
   80.3549   43.8190   43.3567 H   0  0  0  0  0  0  0  0  0  0  0  0
   75.7544   40.4775   38.3481 H   0  0  0  0  0  0  0  0  0  0  0  0
   72.2619   40.5012   39.7367 H   0  0  0  0  0  0  0  0  0  0  0  0
   74.5444   37.1080   39.3862 H   0  0  0  0  0  0  0  0  0  0  0  0
   74.7712   38.1600   37.9799 H   0  0  0  0  0  0  0  0  0  0  0  0
   76.6269   38.4706   39.6207 H   0  0  0  0  0  0  0  0  0  0  0  0
   75.4520   38.7819   40.8903 H   0  0  0  0  0  0  0  0  0  0  0  0
  1  2  1  0  0  0  0
  1 21  1  0  0  0  0
  1 22  1  0  0  0  0
  2  3  1  0  0  0  0
  2 12  2  0  0  0  0
  3  9  2  0  0  0  0
  3  4  1  0  0  0  0
  4  5  2  0  0  0  0
  4  6  1  0  0  0  0
  6  7  1  0  0  0  0
 13  6  1  0  0  0  0
  7  8  2  0  0  0  0
  7  9  1  0  0  0  0
  9 10  1  0  0  0  0
 10 23  1  0  0  0  0
 10 11  2  0  0  0  0
 11 12  1  0  0  0  0
 11 24  1  0  0  0  0
 12 25  1  0  0  0  0
 13 26  1  0  0  0  0
 13 14  1  0  0  0  0
 13 20  1  0  0  0  0
 14 15  2  0  0  0  0
 14 16  1  0  0  0  0
 16 27  1  0  0  0  0
 16 17  1  0  0  0  0
 17 18  2  0  0  0  0
 17 19  1  0  0  0  0
 19 28  1  0  0  0  0
 19 29  1  0  0  0  0
 19 20  1  0  0  0  0
 20 30  1  0  0  0  0
 20 31  1  0  0  0  0
M  ZZC   1 n1
M  ZZC   2 c1
M  ZZC   3 c2
M  ZZC   4 c3
M  ZZC   5 o1
M  ZZC   6 n2
M  ZZC   7 c4
M  ZZC   8 o2
M  ZZC   9 c5
M  ZZC  10 c6
M  ZZC  11 c7
M  ZZC  12 c8
M  ZZC  13 c9
M  ZZC  14 c10
M  ZZC  15 o3
M  ZZC  16 n3
M  ZZC  17 c11
M  ZZC  18 o4
M  ZZC  19 c12
M  ZZC  20 c13
M  ZZC  21 h11
M  ZZC  22 h12
M  ZZC  23 h61
M  ZZC  24 h71
M  ZZC  25 h81
M  ZZC  26 h91
M  ZZC  27 h31
M  ZZC  28 h121
M  ZZC  29 h122
M  ZZC  30 h131
M  ZZC  31 h132
M  ZZM   1 40
M  ZZI   1 224
M  ZZM   2 37
M  ZZI   2 124
M  ZZM   3 37
M  ZZI   3 124
M  ZZM   4 3
M  ZZI   4 121
M  ZZM   5 7
M  ZZI   5 81
M  ZZM   6 10
M  ZZI   6 192
M  ZZM   7 3
M  ZZI   7 121
M  ZZM   8 7
M  ZZI   8 81
M  ZZM   9 37
M  ZZI   9 124
M  ZZM  10 37
M  ZZI  10 125
M  ZZM  11 37
M  ZZI  11 125
M  ZZM  12 37
M  ZZI  12 125
M  ZZM  13 1
M  ZZI  13 113
M  ZZM  14 3
M  ZZI  14 121
M  ZZM  15 7
M  ZZI  15 81
M  ZZM  16 10
M  ZZI  16 191
M  ZZM  17 3
M  ZZI  17 121
M  ZZM  18 7
M  ZZI  18 81
M  ZZM  19 1
M  ZZI  19 112
M  ZZM  20 1
M  ZZI  20 112
M  ZZM  21 28
M  ZZI  21 11
M  ZZM  22 28
M  ZZI  22 11
M  ZZM  23 5
M  ZZI  23 1
M  ZZM  24 5
M  ZZI  24 1
M  ZZM  25 5
M  ZZI  25 1
M  ZZM  26 5
M  ZZI  26 1
M  ZZM  27 28
M  ZZI  27 11
M  ZZM  28 5
M  ZZI  28 1
M  ZZM  29 5
M  ZZI  29 1
M  ZZM  30 5
M  ZZI  30 1
M  ZZM  31 5
M  ZZI  31 1
M  END
> <IX>
1

> <NAME>
Cereblon_3IK3_3.pdb

> <Score>
-18.622328

> <Natom>
31

> <Nflex>
1

> <Hbond>
-3.68927

> <Hphob>
-3.554513

> <VwInt>
-24.361887

> <Dsolv>
15.23314

> <SolEl>
6.532846

> <Eintl>
1.864006

> <RecConf>
ND

> <projPath>
Cereblon_maps/

> <NAME_>
Cereblon_3IK3_3.pdb

$$$$
