Cereblon_3LQ5_21.pdb
  MOLSOFT 04032206223D

 32 34  0  0  1  0  0  0  0  0999 V2000
   78.5745   41.5960   43.9809 N   0  0  0  0  0  0  0  0  0  0  0  0
   78.6814   42.3566   42.8070 C   0  0  0  0  0  0  0  0  0  0  0  0
   77.9740   42.0245   41.6636 C   0  0  0  0  0  0  0  0  0  0  0  0
   78.0680   42.7911   40.5318 C   0  0  0  0  0  0  0  0  0  0  0  0
   77.1659   42.2306   39.5161 C   0  0  0  0  0  0  0  0  0  0  0  0
   76.9954   42.6896   38.3940 O   0  0  0  0  0  0  0  0  0  0  0  0
   76.5860   41.1159   40.0878 N   0  0  0  0  0  0  0  0  0  0  0  0
   75.5481   40.3221   39.4296 C   0  0  2  0  0  0  0  0  0  0  0  0
   74.1870   40.9445   39.7017 C   0  0  0  0  0  0  0  0  0  0  0  0
   74.0287   42.1261   39.9591 O   0  0  0  0  0  0  0  0  0  0  0  0
   73.1049   40.1056   39.5833 N   0  0  0  0  0  0  0  0  0  0  0  0
   73.0994   38.7614   39.3008 C   0  0  0  0  0  0  0  0  0  0  0  0
   72.0599   38.1320   39.1953 O   0  0  0  0  0  0  0  0  0  0  0  0
   74.4493   38.1235   39.0724 C   0  0  0  0  0  0  0  0  0  0  0  0
   75.5404   38.8533   39.8340 C   0  0  0  0  0  0  0  0  0  0  0  0
   77.0515   40.8844   41.4420 C   0  0  0  0  0  0  0  0  0  0  0  0
   78.9144   43.8778   40.4326 C   0  0  0  0  0  0  0  0  0  0  0  0
   79.6927   44.1708   41.5431 C   0  0  0  0  0  0  0  0  0  0  0  0
   79.5784   43.4180   42.7110 C   0  0  0  0  0  0  0  0  0  0  0  0
   78.8823   42.0133   44.8578 H   0  0  0  0  0  0  0  0  0  0  0  0
   77.8667   40.8690   44.0434 H   0  0  0  0  0  0  0  0  0  0  0  0
   75.7104   40.4161   38.3548 H   0  0  0  0  0  0  0  0  0  0  0  0
   72.1989   40.5343   39.7258 H   0  0  0  0  0  0  0  0  0  0  0  0
   74.4040   37.0814   39.4041 H   0  0  0  0  0  0  0  0  0  0  0  0
   74.6520   38.1270   37.9965 H   0  0  0  0  0  0  0  0  0  0  0  0
   76.5138   38.3954   39.6307 H   0  0  0  0  0  0  0  0  0  0  0  0
   75.3611   38.7481   40.9089 H   0  0  0  0  0  0  0  0  0  0  0  0
   77.5823   39.9273   41.4881 H   0  0  0  0  0  0  0  0  0  0  0  0
   76.2103   40.8971   42.1355 H   0  0  0  0  0  0  0  0  0  0  0  0
   78.9782   44.4631   39.5225 H   0  0  0  0  0  0  0  0  0  0  0  0
   80.3868   45.0035   41.5076 H   0  0  0  0  0  0  0  0  0  0  0  0
   80.1958   43.6770   43.5655 H   0  0  0  0  0  0  0  0  0  0  0  0
  1  2  1  0  0  0  0
  1 20  1  0  0  0  0
  1 21  1  0  0  0  0
  2  3  1  0  0  0  0
  2 19  2  0  0  0  0
  3 16  1  0  0  0  0
  3  4  2  0  0  0  0
  4 17  1  0  0  0  0
  4  5  1  0  0  0  0
  5  6  2  0  0  0  0
  5  7  1  0  0  0  0
  8  7  1  0  0  0  0
  7 16  1  0  0  0  0
  8  9  1  0  0  0  0
  8 22  1  0  0  0  0
  8 15  1  0  0  0  0
  9 11  1  0  0  0  0
  9 10  2  0  0  0  0
 11 12  1  0  0  0  0
 11 23  1  0  0  0  0
 12 14  1  0  0  0  0
 12 13  2  0  0  0  0
 14 24  1  0  0  0  0
 14 25  1  0  0  0  0
 14 15  1  0  0  0  0
 15 26  1  0  0  0  0
 15 27  1  0  0  0  0
 16 28  1  0  0  0  0
 16 29  1  0  0  0  0
 17 18  2  0  0  0  0
 17 30  1  0  0  0  0
 18 19  1  0  0  0  0
 18 31  1  0  0  0  0
 19 32  1  0  0  0  0
M  ZZC   1 n1
M  ZZC   2 c1
M  ZZC   3 c2
M  ZZC   4 c3
M  ZZC   5 c4
M  ZZC   6 o1
M  ZZC   7 n2
M  ZZC   8 c5
M  ZZC   9 c6
M  ZZC  10 o2
M  ZZC  11 n3
M  ZZC  12 c7
M  ZZC  13 o3
M  ZZC  14 c8
M  ZZC  15 c9
M  ZZC  16 c10
M  ZZC  17 c11
M  ZZC  18 c12
M  ZZC  19 c13
M  ZZC  20 h11
M  ZZC  21 h12
M  ZZC  22 h51
M  ZZC  23 h31
M  ZZC  24 h81
M  ZZC  25 h82
M  ZZC  26 h91
M  ZZC  27 h92
M  ZZC  28 h101
M  ZZC  29 h102
M  ZZC  30 h111
M  ZZC  31 h121
M  ZZC  32 h131
M  ZZM   1 40
M  ZZI   1 224
M  ZZM   2 37
M  ZZI   2 124
M  ZZM   3 37
M  ZZI   3 124
M  ZZM   4 37
M  ZZI   4 124
M  ZZM   5 3
M  ZZI   5 121
M  ZZM   6 7
M  ZZI   6 81
M  ZZM   7 10
M  ZZI   7 192
M  ZZM   8 1
M  ZZI   8 113
M  ZZM   9 3
M  ZZI   9 121
M  ZZM  10 7
M  ZZI  10 81
M  ZZM  11 10
M  ZZI  11 191
M  ZZM  12 3
M  ZZI  12 121
M  ZZM  13 7
M  ZZI  13 81
M  ZZM  14 1
M  ZZI  14 112
M  ZZM  15 1
M  ZZI  15 112
M  ZZM  16 1
M  ZZI  16 112
M  ZZM  17 37
M  ZZI  17 125
M  ZZM  18 37
M  ZZI  18 125
M  ZZM  19 37
M  ZZI  19 125
M  ZZM  20 28
M  ZZI  20 11
M  ZZM  21 28
M  ZZI  21 11
M  ZZM  22 5
M  ZZI  22 1
M  ZZM  23 28
M  ZZI  23 11
M  ZZM  24 5
M  ZZI  24 1
M  ZZM  25 5
M  ZZI  25 1
M  ZZM  26 5
M  ZZI  26 1
M  ZZM  27 5
M  ZZI  27 1
M  ZZM  28 5
M  ZZI  28 1
M  ZZM  29 5
M  ZZI  29 1
M  ZZM  30 5
M  ZZI  30 1
M  ZZM  31 5
M  ZZI  31 1
M  ZZM  32 5
M  ZZI  32 1
M  END
> <IX>
1

> <NAME>
Cereblon_3LQ5_21.pdb

> <Score>
-22.013471

> <Natom>
32

> <Nflex>
1

> <Hbond>
-4.83612

> <Hphob>
-3.895202

> <VwInt>
-22.620558

> <Dsolv>
14.242657

> <SolEl>
5.275446

> <Eintl>
1.147445

> <RecConf>
ND

> <projPath>
Cereblon_maps/

> <NAME_>
Cereblon_3LQ5_21.pdb

$$$$
