Cereblon_5V5Y_1.pdb
  MOLSOFT 04032206273D

 31 33  0  0  1  0  0  0  0  0999 V2000
   73.3991   41.6051   40.6984 O   0  0  0  0  0  0  0  0  0  0  0  0
   73.2250   41.3225   39.5255 C   0  0  0  0  0  0  0  0  0  0  0  0
   74.3650   41.0485   38.5540 C   0  0  2  0  0  0  0  0  0  0  0  0
   75.6120   41.5523   39.1578 N   0  0  0  0  0  0  0  0  0  0  0  0
   76.2290   40.9083   40.2142 C   0  0  0  0  0  0  0  0  0  0  0  0
   75.9832   39.8129   40.6998 O   0  0  0  0  0  0  0  0  0  0  0  0
   77.3015   41.7866   40.6747 C   0  0  0  0  0  0  0  0  0  0  0  0
   78.1429   41.6607   41.7710 C   0  0  0  0  0  0  0  0  0  0  0  0
   77.9936   40.6335   42.7183 N   0  0  0  0  0  0  0  0  0  0  0  0
   79.0659   42.6891   41.9523 C   0  0  0  0  0  0  0  0  0  0  0  0
   79.1735   43.7444   41.0443 C   0  0  0  0  0  0  0  0  0  0  0  0
   78.3244   43.8327   39.9484 C   0  0  0  0  0  0  0  0  0  0  0  0
   77.3821   42.8309   39.8049 C   0  0  0  0  0  0  0  0  0  0  0  0
   76.3444   42.6623   38.7878 C   0  0  0  0  0  0  0  0  0  0  0  0
   76.2453   43.3733   37.7992 O   0  0  0  0  0  0  0  0  0  0  0  0
   73.9401   41.6699   37.2233 C   0  0  0  0  0  0  0  0  0  0  0  0
   72.7019   40.9495   36.7043 C   0  0  0  0  0  0  0  0  0  0  0  0
   71.5828   40.9441   37.7252 C   0  0  0  0  0  0  0  0  0  0  0  0
   70.4217   40.6998   37.4354 O   0  0  0  0  0  0  0  0  0  0  0  0
   71.9566   41.1788   39.0229 N   0  0  0  0  0  0  0  0  0  0  0  0
   74.4593   39.9595   38.4680 H   0  0  0  0  0  0  0  0  0  0  0  0
   77.3618   39.8671   42.4830 H   0  0  0  0  0  0  0  0  0  0  0  0
   78.7744   40.4206   43.3377 H   0  0  0  0  0  0  0  0  0  0  0  0
   79.7206   42.6720   42.8180 H   0  0  0  0  0  0  0  0  0  0  0  0
   79.9151   44.5196   41.2105 H   0  0  0  0  0  0  0  0  0  0  0  0
   78.3863   44.6592   39.2489 H   0  0  0  0  0  0  0  0  0  0  0  0
   74.7367   41.6145   36.4802 H   0  0  0  0  0  0  0  0  0  0  0  0
   73.7109   42.7344   37.3521 H   0  0  0  0  0  0  0  0  0  0  0  0
   72.3418   41.4451   35.7969 H   0  0  0  0  0  0  0  0  0  0  0  0
   72.9374   39.9102   36.4519 H   0  0  0  0  0  0  0  0  0  0  0  0
   71.2036   41.2742   39.6918 H   0  0  0  0  0  0  0  0  0  0  0  0
  1  2  2  0  0  0  0
  3  2  1  0  0  0  0
  2 20  1  0  0  0  0
  3  4  1  0  0  0  0
  3 21  1  0  0  0  0
  3 16  1  0  0  0  0
  4  5  1  0  0  0  0
  4 14  1  0  0  0  0
  5  7  1  0  0  0  0
  5  6  2  0  0  0  0
  7  8  1  0  0  0  0
  7 13  2  0  0  0  0
  8 10  2  0  0  0  0
  8  9  1  0  0  0  0
  9 22  1  0  0  0  0
  9 23  1  0  0  0  0
 10 24  1  0  0  0  0
 10 11  1  0  0  0  0
 11 12  2  0  0  0  0
 11 25  1  0  0  0  0
 12 13  1  0  0  0  0
 12 26  1  0  0  0  0
 13 14  1  0  0  0  0
 14 15  2  0  0  0  0
 16 17  1  0  0  0  0
 16 27  1  0  0  0  0
 16 28  1  0  0  0  0
 17 18  1  0  0  0  0
 17 29  1  0  0  0  0
 17 30  1  0  0  0  0
 18 20  1  0  0  0  0
 18 19  2  0  0  0  0
 20 31  1  0  0  0  0
M  ZZC   1 o1
M  ZZC   2 c1
M  ZZC   3 c2
M  ZZC   4 n1
M  ZZC   5 c3
M  ZZC   6 o2
M  ZZC   7 c4
M  ZZC   8 c5
M  ZZC   9 n2
M  ZZC  10 c6
M  ZZC  11 c7
M  ZZC  12 c8
M  ZZC  13 c9
M  ZZC  14 c10
M  ZZC  15 o3
M  ZZC  16 c11
M  ZZC  17 c12
M  ZZC  18 c13
M  ZZC  19 o4
M  ZZC  20 n3
M  ZZC  21 h21
M  ZZC  22 h01
M  ZZC  23 h22
M  ZZC  24 h61
M  ZZC  25 h71
M  ZZC  26 h81
M  ZZC  27 h111
M  ZZC  28 h112
M  ZZC  29 h121
M  ZZC  30 h122
M  ZZC  31 h31
M  ZZM   1 7
M  ZZI   1 81
M  ZZM   2 3
M  ZZI   2 121
M  ZZM   3 1
M  ZZI   3 113
M  ZZM   4 10
M  ZZI   4 192
M  ZZM   5 3
M  ZZI   5 121
M  ZZM   6 7
M  ZZI   6 81
M  ZZM   7 37
M  ZZI   7 124
M  ZZM   8 37
M  ZZI   8 124
M  ZZM   9 40
M  ZZI   9 224
M  ZZM  10 37
M  ZZI  10 125
M  ZZM  11 37
M  ZZI  11 125
M  ZZM  12 37
M  ZZI  12 125
M  ZZM  13 37
M  ZZI  13 124
M  ZZM  14 3
M  ZZI  14 121
M  ZZM  15 7
M  ZZI  15 81
M  ZZM  16 1
M  ZZI  16 112
M  ZZM  17 1
M  ZZI  17 112
M  ZZM  18 3
M  ZZI  18 121
M  ZZM  19 7
M  ZZI  19 81
M  ZZM  20 10
M  ZZI  20 191
M  ZZM  21 5
M  ZZI  21 1
M  ZZM  22 28
M  ZZI  22 11
M  ZZM  23 28
M  ZZI  23 11
M  ZZM  24 5
M  ZZI  24 1
M  ZZM  25 5
M  ZZI  25 1
M  ZZM  26 5
M  ZZI  26 1
M  ZZM  27 5
M  ZZI  27 1
M  ZZM  28 5
M  ZZI  28 1
M  ZZM  29 5
M  ZZI  29 1
M  ZZM  30 5
M  ZZI  30 1
M  ZZM  31 28
M  ZZI  31 11
M  END
> <IX>
1

> <NAME>
Cereblon_5V5Y_1.pdb

> <Score>
-14.91882

> <Natom>
31

> <Nflex>
1

> <Hbond>
-2.854204

> <Hphob>
-3.758347

> <VwInt>
-26.961528

> <Dsolv>
16.873281

> <SolEl>
7.673662

> <Eintl>
5.770599

> <RecConf>
ND

> <projPath>
Cereblon_maps/

> <NAME_>
Cereblon_5V5Y_1.pdb

$$$$
