Cereblon_4XUF_5.pdb
  MOLSOFT 04032206243D

 29 31  0  0  1  0  0  0  0  0999 V2000
   78.9970   42.4835   42.6764 C   0  0  0  0  0  0  0  0  0  0  0  0
   78.1835   42.1889   41.5967 C   0  0  0  0  0  0  0  0  0  0  0  0
   77.2665   41.0711   41.4076 C   0  0  0  0  0  0  0  0  0  0  0  0
   77.0854   40.2090   42.2536 O   0  0  0  0  0  0  0  0  0  0  0  0
   76.7268   41.2169   40.1430 N   0  0  0  0  0  0  0  0  0  0  0  0
   77.2234   42.3455   39.5230 C   0  0  0  0  0  0  0  0  0  0  0  0
   76.9879   42.7666   38.3979 O   0  0  0  0  0  0  0  0  0  0  0  0
   78.1576   42.9548   40.4703 C   0  0  0  0  0  0  0  0  0  0  0  0
   78.9547   44.0731   40.3335 C   0  0  0  0  0  0  0  0  0  0  0  0
   79.7932   44.3814   41.3989 C   0  0  0  0  0  0  0  0  0  0  0  0
   79.8143   43.6009   42.5554 C   0  0  0  0  0  0  0  0  0  0  0  0
   75.7160   40.3654   39.5095 C   0  0  2  0  0  0  0  0  0  0  0  0
   74.3371   40.9362   39.7994 C   0  0  0  0  0  0  0  0  0  0  0  0
   74.1528   42.1224   40.0159 O   0  0  0  0  0  0  0  0  0  0  0  0
   73.2849   40.0568   39.7206 N   0  0  0  0  0  0  0  0  0  0  0  0
   73.3202   38.7123   39.4423 C   0  0  0  0  0  0  0  0  0  0  0  0
   72.3026   38.0425   39.3763 O   0  0  0  0  0  0  0  0  0  0  0  0
   74.6845   38.1278   39.1696 C   0  0  0  0  0  0  0  0  0  0  0  0
   75.7666   38.8943   39.9098 C   0  0  0  0  0  0  0  0  0  0  0  0
   79.0064   41.8653   43.5698 H   0  0  0  0  0  0  0  0  0  0  0  0
   78.9244   44.6778   39.4349 H   0  0  0  0  0  0  0  0  0  0  0  0
   80.4388   45.2497   41.3344 H   0  0  0  0  0  0  0  0  0  0  0  0
   80.4779   43.8697   43.3724 H   0  0  0  0  0  0  0  0  0  0  0  0
   75.8553   40.4545   38.4301 H   0  0  0  0  0  0  0  0  0  0  0  0
   72.3672   40.4525   39.8826 H   0  0  0  0  0  0  0  0  0  0  0  0
   74.6873   37.0819   39.4926 H   0  0  0  0  0  0  0  0  0  0  0  0
   74.8492   38.1494   38.0879 H   0  0  0  0  0  0  0  0  0  0  0  0
   76.7518   38.4708   39.6889 H   0  0  0  0  0  0  0  0  0  0  0  0
   75.6008   38.7746   40.9841 H   0  0  0  0  0  0  0  0  0  0  0  0
  1 20  1  0  0  0  0
  1  2  1  0  0  0  0
  1 11  2  0  0  0  0
  2  3  1  0  0  0  0
  2  8  2  0  0  0  0
  3  4  2  0  0  0  0
  3  5  1  0  0  0  0
  5  6  1  0  0  0  0
 12  5  1  0  0  0  0
  6  7  2  0  0  0  0
  6  8  1  0  0  0  0
  8  9  1  0  0  0  0
  9 21  1  0  0  0  0
  9 10  2  0  0  0  0
 10 22  1  0  0  0  0
 10 11  1  0  0  0  0
 11 23  1  0  0  0  0
 12 24  1  0  0  0  0
 12 13  1  0  0  0  0
 12 19  1  0  0  0  0
 13 14  2  0  0  0  0
 13 15  1  0  0  0  0
 15 25  1  0  0  0  0
 15 16  1  0  0  0  0
 16 17  2  0  0  0  0
 16 18  1  0  0  0  0
 18 26  1  0  0  0  0
 18 27  1  0  0  0  0
 18 19  1  0  0  0  0
 19 28  1  0  0  0  0
 19 29  1  0  0  0  0
M  ZZC   1 c1
M  ZZC   2 c2
M  ZZC   3 c3
M  ZZC   4 o1
M  ZZC   5 n1
M  ZZC   6 c4
M  ZZC   7 o2
M  ZZC   8 c5
M  ZZC   9 c6
M  ZZC  10 c7
M  ZZC  11 c8
M  ZZC  12 c9
M  ZZC  13 c10
M  ZZC  14 o3
M  ZZC  15 n2
M  ZZC  16 c11
M  ZZC  17 o4
M  ZZC  18 c12
M  ZZC  19 c13
M  ZZC  20 h11
M  ZZC  21 h61
M  ZZC  22 h71
M  ZZC  23 h81
M  ZZC  24 h91
M  ZZC  25 h21
M  ZZC  26 h121
M  ZZC  27 h122
M  ZZC  28 h131
M  ZZC  29 h132
M  ZZM   1 37
M  ZZI   1 125
M  ZZM   2 37
M  ZZI   2 124
M  ZZM   3 3
M  ZZI   3 121
M  ZZM   4 7
M  ZZI   4 81
M  ZZM   5 10
M  ZZI   5 192
M  ZZM   6 3
M  ZZI   6 121
M  ZZM   7 7
M  ZZI   7 81
M  ZZM   8 37
M  ZZI   8 124
M  ZZM   9 37
M  ZZI   9 125
M  ZZM  10 37
M  ZZI  10 125
M  ZZM  11 37
M  ZZI  11 125
M  ZZM  12 1
M  ZZI  12 113
M  ZZM  13 3
M  ZZI  13 121
M  ZZM  14 7
M  ZZI  14 81
M  ZZM  15 10
M  ZZI  15 191
M  ZZM  16 3
M  ZZI  16 121
M  ZZM  17 7
M  ZZI  17 81
M  ZZM  18 1
M  ZZI  18 112
M  ZZM  19 1
M  ZZI  19 112
M  ZZM  20 5
M  ZZI  20 1
M  ZZM  21 5
M  ZZI  21 1
M  ZZM  22 5
M  ZZI  22 1
M  ZZM  23 5
M  ZZI  23 1
M  ZZM  24 5
M  ZZI  24 1
M  ZZM  25 28
M  ZZI  25 11
M  ZZM  26 5
M  ZZI  26 1
M  ZZM  27 5
M  ZZI  27 1
M  ZZM  28 5
M  ZZI  28 1
M  ZZM  29 5
M  ZZI  29 1
M  END
> <IX>
1

> <NAME>
Cereblon_4XUF_5.pdb

> <Score>
-19.268357

> <Natom>
29

> <Nflex>
1

> <Hbond>
-3.369032

> <Hphob>
-3.543142

> <VwInt>
-22.663287

> <Dsolv>
12.093273

> <SolEl>
5.663522

> <Eintl>
1.474348

> <RecConf>
ND

> <projPath>
Cereblon_maps/

> <NAME_>
Cereblon_4XUF_5.pdb

$$$$
