Cereblon_3K6P_17.pdb
  MOLSOFT 04032206213D

 31 33  0  0  1  0  0  0  0  0999 V2000
   78.0664   40.6306   42.6472 N   0  0  0  0  0  0  0  0  0  0  0  0
   78.1192   41.7214   41.7641 C   0  0  0  0  0  0  0  0  0  0  0  0
   77.2931   41.8159   40.6529 C   0  0  0  0  0  0  0  0  0  0  0  0
   76.2249   40.9273   40.2012 C   0  0  0  0  0  0  0  0  0  0  0  0
   75.9752   39.8405   40.7034 O   0  0  0  0  0  0  0  0  0  0  0  0
   75.6042   41.5586   39.1392 N   0  0  0  0  0  0  0  0  0  0  0  0
   76.3321   42.6673   38.7568 C   0  0  0  0  0  0  0  0  0  0  0  0
   76.2308   43.3666   37.7601 O   0  0  0  0  0  0  0  0  0  0  0  0
   77.3686   42.8514   39.7723 C   0  0  0  0  0  0  0  0  0  0  0  0
   78.3100   43.8560   39.9012 C   0  0  0  0  0  0  0  0  0  0  0  0
   79.1771   43.7704   40.9828 C   0  0  0  0  0  0  0  0  0  0  0  0
   79.0790   42.7222   41.8995 C   0  0  0  0  0  0  0  0  0  0  0  0
   74.3560   41.0459   38.5452 C   0  0  1  0  0  0  0  0  0  0  0  0
   73.2208   41.3229   39.5221 C   0  0  0  0  0  0  0  0  0  0  0  0
   73.4011   41.6108   40.6928 O   0  0  0  0  0  0  0  0  0  0  0  0
   71.9495   41.1756   39.0280 N   0  0  0  0  0  0  0  0  0  0  0  0
   71.5679   40.9335   37.7340 C   0  0  0  0  0  0  0  0  0  0  0  0
   70.4047   40.6887   37.4527 O   0  0  0  0  0  0  0  0  0  0  0  0
   72.6810   40.9320   36.7067 C   0  0  0  0  0  0  0  0  0  0  0  0
   73.9214   41.6577   37.2130 C   0  0  0  0  0  0  0  0  0  0  0  0
   78.6450   40.6188   43.4860 H   0  0  0  0  0  0  0  0  0  0  0  0
   77.2683   39.9960   42.5921 H   0  0  0  0  0  0  0  0  0  0  0  0
   78.3686   44.6741   39.1919 H   0  0  0  0  0  0  0  0  0  0  0  0
   79.9347   44.5350   41.1233 H   0  0  0  0  0  0  0  0  0  0  0  0
   79.7684   42.6914   42.7374 H   0  0  0  0  0  0  0  0  0  0  0  0
   74.4532   39.9566   38.4659 H   0  0  0  0  0  0  0  0  0  0  0  0
   71.2005   41.2739   39.7009 H   0  0  0  0  0  0  0  0  0  0  0  0
   72.9161   39.8911   36.4609 H   0  0  0  0  0  0  0  0  0  0  0  0
   72.3152   41.4203   35.7977 H   0  0  0  0  0  0  0  0  0  0  0  0
   74.7131   41.5982   36.4649 H   0  0  0  0  0  0  0  0  0  0  0  0
   73.6917   42.7228   37.3363 H   0  0  0  0  0  0  0  0  0  0  0  0
  1  2  1  0  0  0  0
  1 21  1  0  0  0  0
  1 22  1  0  0  0  0
  2  3  1  0  0  0  0
  2 12  2  0  0  0  0
  3  9  2  0  0  0  0
  3  4  1  0  0  0  0
  4  5  2  0  0  0  0
  4  6  1  0  0  0  0
  6  7  1  0  0  0  0
 13  6  1  0  0  0  0
  7  8  2  0  0  0  0
  7  9  1  0  0  0  0
  9 10  1  0  0  0  0
 10 23  1  0  0  0  0
 10 11  2  0  0  0  0
 11 12  1  0  0  0  0
 11 24  1  0  0  0  0
 12 25  1  0  0  0  0
 13 26  1  0  0  0  0
 13 14  1  0  0  0  0
 13 20  1  0  0  0  0
 14 15  2  0  0  0  0
 14 16  1  0  0  0  0
 16 27  1  0  0  0  0
 16 17  1  0  0  0  0
 17 18  2  0  0  0  0
 17 19  1  0  0  0  0
 19 28  1  0  0  0  0
 19 29  1  0  0  0  0
 19 20  1  0  0  0  0
 20 30  1  0  0  0  0
 20 31  1  0  0  0  0
M  ZZC   1 n1
M  ZZC   2 c1
M  ZZC   3 c2
M  ZZC   4 c3
M  ZZC   5 o1
M  ZZC   6 n2
M  ZZC   7 c4
M  ZZC   8 o2
M  ZZC   9 c5
M  ZZC  10 c6
M  ZZC  11 c7
M  ZZC  12 c8
M  ZZC  13 c9
M  ZZC  14 c10
M  ZZC  15 o3
M  ZZC  16 n3
M  ZZC  17 c11
M  ZZC  18 o4
M  ZZC  19 c12
M  ZZC  20 c13
M  ZZC  21 h11
M  ZZC  22 h12
M  ZZC  23 h61
M  ZZC  24 h71
M  ZZC  25 h81
M  ZZC  26 h91
M  ZZC  27 h31
M  ZZC  28 h121
M  ZZC  29 h122
M  ZZC  30 h131
M  ZZC  31 h132
M  ZZM   1 40
M  ZZI   1 224
M  ZZM   2 37
M  ZZI   2 124
M  ZZM   3 37
M  ZZI   3 124
M  ZZM   4 3
M  ZZI   4 121
M  ZZM   5 7
M  ZZI   5 81
M  ZZM   6 10
M  ZZI   6 192
M  ZZM   7 3
M  ZZI   7 121
M  ZZM   8 7
M  ZZI   8 81
M  ZZM   9 37
M  ZZI   9 124
M  ZZM  10 37
M  ZZI  10 125
M  ZZM  11 37
M  ZZI  11 125
M  ZZM  12 37
M  ZZI  12 125
M  ZZM  13 1
M  ZZI  13 113
M  ZZM  14 3
M  ZZI  14 121
M  ZZM  15 7
M  ZZI  15 81
M  ZZM  16 10
M  ZZI  16 191
M  ZZM  17 3
M  ZZI  17 121
M  ZZM  18 7
M  ZZI  18 81
M  ZZM  19 1
M  ZZI  19 112
M  ZZM  20 1
M  ZZI  20 112
M  ZZM  21 28
M  ZZI  21 11
M  ZZM  22 28
M  ZZI  22 11
M  ZZM  23 5
M  ZZI  23 1
M  ZZM  24 5
M  ZZI  24 1
M  ZZM  25 5
M  ZZI  25 1
M  ZZM  26 5
M  ZZI  26 1
M  ZZM  27 28
M  ZZI  27 11
M  ZZM  28 5
M  ZZI  28 1
M  ZZM  29 5
M  ZZI  29 1
M  ZZM  30 5
M  ZZI  30 1
M  ZZM  31 5
M  ZZI  31 1
M  END
> <IX>
1

> <NAME>
Cereblon_3K6P_17.pdb

> <Score>
-14.71419

> <Natom>
31

> <Nflex>
1

> <Hbond>
-2.759335

> <Hphob>
-3.670054

> <VwInt>
-27.004212

> <Dsolv>
17.197112

> <SolEl>
7.095771

> <Eintl>
5.915054

> <RecConf>
ND

> <projPath>
Cereblon_maps/

> <NAME_>
Cereblon_3K6P_17.pdb

$$$$
