Cereblon_4LY1_2.pdb
  MOLSOFT 04032206223D

 29 31  0  0  1  0  0  0  0  0999 V2000
   79.0043   42.4916   42.6722 C   0  0  0  0  0  0  0  0  0  0  0  0
   78.1860   42.1961   41.5963 C   0  0  0  0  0  0  0  0  0  0  0  0
   77.2682   41.0779   41.4112 C   0  0  0  0  0  0  0  0  0  0  0  0
   77.0874   40.2175   42.2591 O   0  0  0  0  0  0  0  0  0  0  0  0
   76.7270   41.2195   40.1463 N   0  0  0  0  0  0  0  0  0  0  0  0
   77.2231   42.3468   39.5230 C   0  0  0  0  0  0  0  0  0  0  0  0
   76.9872   42.7653   38.3970 O   0  0  0  0  0  0  0  0  0  0  0  0
   78.1586   42.9588   40.4673 C   0  0  0  0  0  0  0  0  0  0  0  0
   78.9570   44.0751   40.3244 C   0  0  0  0  0  0  0  0  0  0  0  0
   79.8002   44.3846   41.3856 C   0  0  0  0  0  0  0  0  0  0  0  0
   79.8239   43.6072   42.5441 C   0  0  0  0  0  0  0  0  0  0  0  0
   75.7191   40.3648   39.5134 C   0  0  2  0  0  0  0  0  0  0  0  0
   74.3395   40.9337   39.8024 C   0  0  0  0  0  0  0  0  0  0  0  0
   74.1518   42.1197   40.0173 O   0  0  0  0  0  0  0  0  0  0  0  0
   73.2895   40.0514   39.7284 N   0  0  0  0  0  0  0  0  0  0  0  0
   73.3269   38.7055   39.4581 C   0  0  0  0  0  0  0  0  0  0  0  0
   72.3105   38.0330   39.4013 O   0  0  0  0  0  0  0  0  0  0  0  0
   74.6912   38.1235   39.1806 C   0  0  0  0  0  0  0  0  0  0  0  0
   75.7740   38.8942   39.9154 C   0  0  0  0  0  0  0  0  0  0  0  0
   79.0154   41.8769   43.5681 H   0  0  0  0  0  0  0  0  0  0  0  0
   78.9260   44.6761   39.4233 H   0  0  0  0  0  0  0  0  0  0  0  0
   80.4498   45.2494   41.3152 H   0  0  0  0  0  0  0  0  0  0  0  0
   80.4919   43.8762   43.3575 H   0  0  0  0  0  0  0  0  0  0  0  0
   75.8580   40.4521   38.4338 H   0  0  0  0  0  0  0  0  0  0  0  0
   72.3707   40.4442   39.8917 H   0  0  0  0  0  0  0  0  0  0  0  0
   74.6975   37.0782   39.5046 H   0  0  0  0  0  0  0  0  0  0  0  0
   74.8517   38.1459   38.0984 H   0  0  0  0  0  0  0  0  0  0  0  0
   76.7589   38.4728   39.6902 H   0  0  0  0  0  0  0  0  0  0  0  0
   75.6129   38.7747   40.9907 H   0  0  0  0  0  0  0  0  0  0  0  0
  1 20  1  0  0  0  0
  1  2  1  0  0  0  0
  1 11  2  0  0  0  0
  2  3  1  0  0  0  0
  2  8  2  0  0  0  0
  3  4  2  0  0  0  0
  3  5  1  0  0  0  0
  5  6  1  0  0  0  0
 12  5  1  0  0  0  0
  6  7  2  0  0  0  0
  6  8  1  0  0  0  0
  8  9  1  0  0  0  0
  9 21  1  0  0  0  0
  9 10  2  0  0  0  0
 10 22  1  0  0  0  0
 10 11  1  0  0  0  0
 11 23  1  0  0  0  0
 12 24  1  0  0  0  0
 12 13  1  0  0  0  0
 12 19  1  0  0  0  0
 13 14  2  0  0  0  0
 13 15  1  0  0  0  0
 15 25  1  0  0  0  0
 15 16  1  0  0  0  0
 16 17  2  0  0  0  0
 16 18  1  0  0  0  0
 18 26  1  0  0  0  0
 18 27  1  0  0  0  0
 18 19  1  0  0  0  0
 19 28  1  0  0  0  0
 19 29  1  0  0  0  0
M  ZZC   1 c1
M  ZZC   2 c2
M  ZZC   3 c3
M  ZZC   4 o1
M  ZZC   5 n1
M  ZZC   6 c4
M  ZZC   7 o2
M  ZZC   8 c5
M  ZZC   9 c6
M  ZZC  10 c7
M  ZZC  11 c8
M  ZZC  12 c9
M  ZZC  13 c10
M  ZZC  14 o3
M  ZZC  15 n2
M  ZZC  16 c11
M  ZZC  17 o4
M  ZZC  18 c12
M  ZZC  19 c13
M  ZZC  20 h11
M  ZZC  21 h61
M  ZZC  22 h71
M  ZZC  23 h81
M  ZZC  24 h91
M  ZZC  25 h21
M  ZZC  26 h121
M  ZZC  27 h122
M  ZZC  28 h131
M  ZZC  29 h132
M  ZZM   1 37
M  ZZI   1 125
M  ZZM   2 37
M  ZZI   2 124
M  ZZM   3 3
M  ZZI   3 121
M  ZZM   4 7
M  ZZI   4 81
M  ZZM   5 10
M  ZZI   5 192
M  ZZM   6 3
M  ZZI   6 121
M  ZZM   7 7
M  ZZI   7 81
M  ZZM   8 37
M  ZZI   8 124
M  ZZM   9 37
M  ZZI   9 125
M  ZZM  10 37
M  ZZI  10 125
M  ZZM  11 37
M  ZZI  11 125
M  ZZM  12 1
M  ZZI  12 113
M  ZZM  13 3
M  ZZI  13 121
M  ZZM  14 7
M  ZZI  14 81
M  ZZM  15 10
M  ZZI  15 191
M  ZZM  16 3
M  ZZI  16 121
M  ZZM  17 7
M  ZZI  17 81
M  ZZM  18 1
M  ZZI  18 112
M  ZZM  19 1
M  ZZI  19 112
M  ZZM  20 5
M  ZZI  20 1
M  ZZM  21 5
M  ZZI  21 1
M  ZZM  22 5
M  ZZI  22 1
M  ZZM  23 5
M  ZZI  23 1
M  ZZM  24 5
M  ZZI  24 1
M  ZZM  25 28
M  ZZI  25 11
M  ZZM  26 5
M  ZZI  26 1
M  ZZM  27 5
M  ZZI  27 1
M  ZZM  28 5
M  ZZI  28 1
M  ZZM  29 5
M  ZZI  29 1
M  END
> <IX>
1

> <NAME>
Cereblon_4LY1_2.pdb

> <Score>
-19.308485

> <Natom>
29

> <Nflex>
1

> <Hbond>
-3.367097

> <Hphob>
-3.533105

> <VwInt>
-22.702157

> <Dsolv>
12.08873

> <SolEl>
5.646249

> <Eintl>
1.477557

> <RecConf>
ND

> <projPath>
Cereblon_maps/

> <NAME_>
Cereblon_4LY1_2.pdb

$$$$
