Cereblon_2GQG_35.pdb
  MOLSOFT 04032206203D

 31 33  0  0  1  0  0  0  0  0999 V2000
   78.8199   41.6851   43.8103 N   0  0  0  0  0  0  0  0  0  0  0  0
   78.9024   42.4357   42.6275 C   0  0  0  0  0  0  0  0  0  0  0  0
   78.0992   42.1648   41.5330 C   0  0  0  0  0  0  0  0  0  0  0  0
   77.1783   41.0538   41.3289 C   0  0  0  0  0  0  0  0  0  0  0  0
   76.9959   40.1742   42.1574 O   0  0  0  0  0  0  0  0  0  0  0  0
   76.6450   41.2139   40.0654 N   0  0  0  0  0  0  0  0  0  0  0  0
   77.1656   42.3335   39.4490 C   0  0  0  0  0  0  0  0  0  0  0  0
   76.9530   42.7529   38.3188 O   0  0  0  0  0  0  0  0  0  0  0  0
   78.0967   42.9314   40.4073 C   0  0  0  0  0  0  0  0  0  0  0  0
   78.9092   44.0397   40.2837 C   0  0  0  0  0  0  0  0  0  0  0  0
   79.7272   44.3409   41.3660 C   0  0  0  0  0  0  0  0  0  0  0  0
   79.7144   43.5610   42.5241 C   0  0  0  0  0  0  0  0  0  0  0  0
   75.6247   40.3768   39.4308 C   0  0  2  0  0  0  0  0  0  0  0  0
   74.2537   40.9548   39.7376 C   0  0  0  0  0  0  0  0  0  0  0  0
   74.0835   42.1350   39.9939 O   0  0  0  0  0  0  0  0  0  0  0  0
   73.1931   40.0892   39.6260 N   0  0  0  0  0  0  0  0  0  0  0  0
   73.2176   38.7512   39.3150 C   0  0  0  0  0  0  0  0  0  0  0  0
   72.1925   38.0984   39.2078 O   0  0  0  0  0  0  0  0  0  0  0  0
   74.5804   38.1514   39.0625 C   0  0  0  0  0  0  0  0  0  0  0  0
   75.6599   38.9026   39.8214 C   0  0  0  0  0  0  0  0  0  0  0  0
   79.5345   41.7906   44.5274 H   0  0  0  0  0  0  0  0  0  0  0  0
   78.2954   40.8088   43.7898 H   0  0  0  0  0  0  0  0  0  0  0  0
   78.9008   44.6459   39.3856 H   0  0  0  0  0  0  0  0  0  0  0  0
   80.3792   45.2059   41.3172 H   0  0  0  0  0  0  0  0  0  0  0  0
   80.3514   43.8407   43.3577 H   0  0  0  0  0  0  0  0  0  0  0  0
   75.7570   40.4758   38.3522 H   0  0  0  0  0  0  0  0  0  0  0  0
   72.2779   40.4912   39.7872 H   0  0  0  0  0  0  0  0  0  0  0  0
   74.5654   37.1049   39.3829 H   0  0  0  0  0  0  0  0  0  0  0  0
   74.7666   38.1729   37.9842 H   0  0  0  0  0  0  0  0  0  0  0  0
   75.4788   38.7756   40.8927 H   0  0  0  0  0  0  0  0  0  0  0  0
   76.6443   38.4723   39.6108 H   0  0  0  0  0  0  0  0  0  0  0  0
  1  2  1  0  0  0  0
  1 21  1  0  0  0  0
  1 22  1  0  0  0  0
  2  3  1  0  0  0  0
  2 12  2  0  0  0  0
  3  9  2  0  0  0  0
  3  4  1  0  0  0  0
  4  5  2  0  0  0  0
  4  6  1  0  0  0  0
  6  7  1  0  0  0  0
 13  6  1  0  0  0  0
  7  8  2  0  0  0  0
  7  9  1  0  0  0  0
  9 10  1  0  0  0  0
 10 23  1  0  0  0  0
 10 11  2  0  0  0  0
 11 12  1  0  0  0  0
 11 24  1  0  0  0  0
 12 25  1  0  0  0  0
 13 26  1  0  0  0  0
 13 14  1  0  0  0  0
 13 20  1  0  0  0  0
 14 15  2  0  0  0  0
 14 16  1  0  0  0  0
 16 27  1  0  0  0  0
 16 17  1  0  0  0  0
 17 18  2  0  0  0  0
 17 19  1  0  0  0  0
 19 28  1  0  0  0  0
 19 29  1  0  0  0  0
 19 20  1  0  0  0  0
 20 30  1  0  0  0  0
 20 31  1  0  0  0  0
M  ZZC   1 n1
M  ZZC   2 c1
M  ZZC   3 c2
M  ZZC   4 c3
M  ZZC   5 o1
M  ZZC   6 n2
M  ZZC   7 c4
M  ZZC   8 o2
M  ZZC   9 c5
M  ZZC  10 c6
M  ZZC  11 c7
M  ZZC  12 c8
M  ZZC  13 c9
M  ZZC  14 c10
M  ZZC  15 o3
M  ZZC  16 n3
M  ZZC  17 c11
M  ZZC  18 o4
M  ZZC  19 c12
M  ZZC  20 c13
M  ZZC  21 h11
M  ZZC  22 h12
M  ZZC  23 h61
M  ZZC  24 h71
M  ZZC  25 h81
M  ZZC  26 h91
M  ZZC  27 h31
M  ZZC  28 h121
M  ZZC  29 h122
M  ZZC  30 h131
M  ZZC  31 h132
M  ZZM   1 40
M  ZZI   1 224
M  ZZM   2 37
M  ZZI   2 124
M  ZZM   3 37
M  ZZI   3 124
M  ZZM   4 3
M  ZZI   4 121
M  ZZM   5 7
M  ZZI   5 81
M  ZZM   6 10
M  ZZI   6 192
M  ZZM   7 3
M  ZZI   7 121
M  ZZM   8 7
M  ZZI   8 81
M  ZZM   9 37
M  ZZI   9 124
M  ZZM  10 37
M  ZZI  10 125
M  ZZM  11 37
M  ZZI  11 125
M  ZZM  12 37
M  ZZI  12 125
M  ZZM  13 1
M  ZZI  13 113
M  ZZM  14 3
M  ZZI  14 121
M  ZZM  15 7
M  ZZI  15 81
M  ZZM  16 10
M  ZZI  16 191
M  ZZM  17 3
M  ZZI  17 121
M  ZZM  18 7
M  ZZI  18 81
M  ZZM  19 1
M  ZZI  19 112
M  ZZM  20 1
M  ZZI  20 112
M  ZZM  21 28
M  ZZI  21 11
M  ZZM  22 28
M  ZZI  22 11
M  ZZM  23 5
M  ZZI  23 1
M  ZZM  24 5
M  ZZI  24 1
M  ZZM  25 5
M  ZZI  25 1
M  ZZM  26 5
M  ZZI  26 1
M  ZZM  27 28
M  ZZI  27 11
M  ZZM  28 5
M  ZZI  28 1
M  ZZM  29 5
M  ZZI  29 1
M  ZZM  30 5
M  ZZI  30 1
M  ZZM  31 5
M  ZZI  31 1
M  END
> <IX>
1

> <NAME>
Cereblon_2GQG_35.pdb

> <Score>
-18.499877

> <Natom>
31

> <Nflex>
1

> <Hbond>
-3.693716

> <Hphob>
-3.58192

> <VwInt>
-24.224936

> <Dsolv>
15.215741

> <SolEl>
6.749147

> <Eintl>
1.673007

> <RecConf>
ND

> <projPath>
Cereblon_maps/

> <NAME_>
Cereblon_2GQG_35.pdb

$$$$
