Cereblon_2VTI_15.pdb
  MOLSOFT 04032206203D

 31 33  0  0  1  0  0  0  0  0999 V2000
   78.8163   41.6870   43.8107 N   0  0  0  0  0  0  0  0  0  0  0  0
   78.8999   42.4362   42.6272 C   0  0  0  0  0  0  0  0  0  0  0  0
   78.0975   42.1641   41.5321 C   0  0  0  0  0  0  0  0  0  0  0  0
   77.1782   41.0518   41.3276 C   0  0  0  0  0  0  0  0  0  0  0  0
   76.9943   40.1731   42.1568 O   0  0  0  0  0  0  0  0  0  0  0  0
   76.6446   41.2118   40.0642 N   0  0  0  0  0  0  0  0  0  0  0  0
   77.1646   42.3316   39.4474 C   0  0  0  0  0  0  0  0  0  0  0  0
   76.9518   42.7508   38.3171 O   0  0  0  0  0  0  0  0  0  0  0  0
   78.0948   42.9304   40.4060 C   0  0  0  0  0  0  0  0  0  0  0  0
   78.9064   44.0393   40.2821 C   0  0  0  0  0  0  0  0  0  0  0  0
   79.7243   44.3414   41.3652 C   0  0  0  0  0  0  0  0  0  0  0  0
   79.7120   43.5615   42.5233 C   0  0  0  0  0  0  0  0  0  0  0  0
   75.6237   40.3748   39.4303 C   0  0  2  0  0  0  0  0  0  0  0  0
   74.2530   40.9542   39.7358 C   0  0  0  0  0  0  0  0  0  0  0  0
   74.0836   42.1343   39.9935 O   0  0  0  0  0  0  0  0  0  0  0  0
   73.1917   40.0898   39.6212 N   0  0  0  0  0  0  0  0  0  0  0  0
   73.2157   38.7520   39.3090 C   0  0  0  0  0  0  0  0  0  0  0  0
   72.1902   38.1003   39.1980 O   0  0  0  0  0  0  0  0  0  0  0  0
   74.5786   38.1508   39.0601 C   0  0  0  0  0  0  0  0  0  0  0  0
   75.6569   38.9011   39.8218 C   0  0  0  0  0  0  0  0  0  0  0  0
   79.5226   41.8025   44.5343 H   0  0  0  0  0  0  0  0  0  0  0  0
   78.2950   40.8089   43.7916 H   0  0  0  0  0  0  0  0  0  0  0  0
   78.9000   44.6433   39.3825 H   0  0  0  0  0  0  0  0  0  0  0  0
   80.3743   45.2079   41.3173 H   0  0  0  0  0  0  0  0  0  0  0  0
   80.3463   43.8436   43.3581 H   0  0  0  0  0  0  0  0  0  0  0  0
   75.7568   40.4730   38.3517 H   0  0  0  0  0  0  0  0  0  0  0  0
   72.2766   40.4925   39.7807 H   0  0  0  0  0  0  0  0  0  0  0  0
   74.5620   37.1041   39.3800 H   0  0  0  0  0  0  0  0  0  0  0  0
   74.7676   38.1727   37.9823 H   0  0  0  0  0  0  0  0  0  0  0  0
   76.6414   38.4696   39.6142 H   0  0  0  0  0  0  0  0  0  0  0  0
   75.4734   38.7750   40.8928 H   0  0  0  0  0  0  0  0  0  0  0  0
  1  2  1  0  0  0  0
  1 21  1  0  0  0  0
  1 22  1  0  0  0  0
  2  3  1  0  0  0  0
  2 12  2  0  0  0  0
  3  9  2  0  0  0  0
  3  4  1  0  0  0  0
  4  5  2  0  0  0  0
  4  6  1  0  0  0  0
  6  7  1  0  0  0  0
 13  6  1  0  0  0  0
  7  8  2  0  0  0  0
  7  9  1  0  0  0  0
  9 10  1  0  0  0  0
 10 23  1  0  0  0  0
 10 11  2  0  0  0  0
 11 12  1  0  0  0  0
 11 24  1  0  0  0  0
 12 25  1  0  0  0  0
 13 26  1  0  0  0  0
 13 14  1  0  0  0  0
 13 20  1  0  0  0  0
 14 15  2  0  0  0  0
 14 16  1  0  0  0  0
 16 27  1  0  0  0  0
 16 17  1  0  0  0  0
 17 18  2  0  0  0  0
 17 19  1  0  0  0  0
 19 28  1  0  0  0  0
 19 29  1  0  0  0  0
 19 20  1  0  0  0  0
 20 30  1  0  0  0  0
 20 31  1  0  0  0  0
M  ZZC   1 n1
M  ZZC   2 c1
M  ZZC   3 c2
M  ZZC   4 c3
M  ZZC   5 o1
M  ZZC   6 n2
M  ZZC   7 c4
M  ZZC   8 o2
M  ZZC   9 c5
M  ZZC  10 c6
M  ZZC  11 c7
M  ZZC  12 c8
M  ZZC  13 c9
M  ZZC  14 c10
M  ZZC  15 o3
M  ZZC  16 n3
M  ZZC  17 c11
M  ZZC  18 o4
M  ZZC  19 c12
M  ZZC  20 c13
M  ZZC  21 h11
M  ZZC  22 h12
M  ZZC  23 h61
M  ZZC  24 h71
M  ZZC  25 h81
M  ZZC  26 h91
M  ZZC  27 h31
M  ZZC  28 h121
M  ZZC  29 h122
M  ZZC  30 h131
M  ZZC  31 h132
M  ZZM   1 40
M  ZZI   1 224
M  ZZM   2 37
M  ZZI   2 124
M  ZZM   3 37
M  ZZI   3 124
M  ZZM   4 3
M  ZZI   4 121
M  ZZM   5 7
M  ZZI   5 81
M  ZZM   6 10
M  ZZI   6 192
M  ZZM   7 3
M  ZZI   7 121
M  ZZM   8 7
M  ZZI   8 81
M  ZZM   9 37
M  ZZI   9 124
M  ZZM  10 37
M  ZZI  10 125
M  ZZM  11 37
M  ZZI  11 125
M  ZZM  12 37
M  ZZI  12 125
M  ZZM  13 1
M  ZZI  13 113
M  ZZM  14 3
M  ZZI  14 121
M  ZZM  15 7
M  ZZI  15 81
M  ZZM  16 10
M  ZZI  16 191
M  ZZM  17 3
M  ZZI  17 121
M  ZZM  18 7
M  ZZI  18 81
M  ZZM  19 1
M  ZZI  19 112
M  ZZM  20 1
M  ZZI  20 112
M  ZZM  21 28
M  ZZI  21 11
M  ZZM  22 28
M  ZZI  22 11
M  ZZM  23 5
M  ZZI  23 1
M  ZZM  24 5
M  ZZI  24 1
M  ZZM  25 5
M  ZZI  25 1
M  ZZM  26 5
M  ZZI  26 1
M  ZZM  27 28
M  ZZI  27 11
M  ZZM  28 5
M  ZZI  28 1
M  ZZM  29 5
M  ZZI  29 1
M  ZZM  30 5
M  ZZI  30 1
M  ZZM  31 5
M  ZZI  31 1
M  END
> <IX>
1

> <NAME>
Cereblon_2VTI_15.pdb

> <Score>
-18.508866

> <Natom>
31

> <Nflex>
1

> <Hbond>
-3.692017

> <Hphob>
-3.550729

> <VwInt>
-24.321331

> <Dsolv>
15.257552

> <SolEl>
6.810866

> <Eintl>
1.656536

> <RecConf>
ND

> <projPath>
Cereblon_maps/

> <NAME_>
Cereblon_2VTI_15.pdb

$$$$
