Cereblon_6QJU_1.pdb
  MOLSOFT 04032206293D

 29 31  0  0  1  0  0  0  0  0999 V2000
   79.0060   42.4919   42.6715 C   0  0  0  0  0  0  0  0  0  0  0  0
   78.1869   42.1964   41.5962 C   0  0  0  0  0  0  0  0  0  0  0  0
   77.2686   41.0786   41.4119 C   0  0  0  0  0  0  0  0  0  0  0  0
   77.0875   40.2185   42.2600 O   0  0  0  0  0  0  0  0  0  0  0  0
   76.7277   41.2202   40.1469 N   0  0  0  0  0  0  0  0  0  0  0  0
   77.2237   42.3473   39.5235 C   0  0  0  0  0  0  0  0  0  0  0  0
   76.9881   42.7645   38.3969 O   0  0  0  0  0  0  0  0  0  0  0  0
   78.1589   42.9593   40.4679 C   0  0  0  0  0  0  0  0  0  0  0  0
   78.9573   44.0758   40.3246 C   0  0  0  0  0  0  0  0  0  0  0  0
   79.8006   44.3852   41.3859 C   0  0  0  0  0  0  0  0  0  0  0  0
   79.8254   43.6070   42.5439 C   0  0  0  0  0  0  0  0  0  0  0  0
   75.7191   40.3662   39.5138 C   0  0  2  0  0  0  0  0  0  0  0  0
   74.3393   40.9354   39.8016 C   0  0  0  0  0  0  0  0  0  0  0  0
   74.1519   42.1215   40.0162 O   0  0  0  0  0  0  0  0  0  0  0  0
   73.2892   40.0534   39.7235 N   0  0  0  0  0  0  0  0  0  0  0  0
   73.3265   38.7072   39.4547 C   0  0  0  0  0  0  0  0  0  0  0  0
   72.3107   38.0338   39.3989 O   0  0  0  0  0  0  0  0  0  0  0  0
   74.6910   38.1252   39.1793 C   0  0  0  0  0  0  0  0  0  0  0  0
   75.7730   38.8952   39.9160 C   0  0  0  0  0  0  0  0  0  0  0  0
   79.0166   41.8767   43.5668 H   0  0  0  0  0  0  0  0  0  0  0  0
   78.9250   44.6762   39.4231 H   0  0  0  0  0  0  0  0  0  0  0  0
   80.4495   45.2504   41.3157 H   0  0  0  0  0  0  0  0  0  0  0  0
   80.4940   43.8759   43.3564 H   0  0  0  0  0  0  0  0  0  0  0  0
   75.8588   40.4527   38.4342 H   0  0  0  0  0  0  0  0  0  0  0  0
   72.3701   40.4465   39.8840 H   0  0  0  0  0  0  0  0  0  0  0  0
   74.6983   37.0797   39.5040 H   0  0  0  0  0  0  0  0  0  0  0  0
   74.8530   38.1459   38.0971 H   0  0  0  0  0  0  0  0  0  0  0  0
   75.6088   38.7761   40.9908 H   0  0  0  0  0  0  0  0  0  0  0  0
   76.7590   38.4739   39.6948 H   0  0  0  0  0  0  0  0  0  0  0  0
  1 20  1  0  0  0  0
  1  2  1  0  0  0  0
  1 11  2  0  0  0  0
  2  3  1  0  0  0  0
  2  8  2  0  0  0  0
  3  4  2  0  0  0  0
  3  5  1  0  0  0  0
  5  6  1  0  0  0  0
 12  5  1  0  0  0  0
  6  7  2  0  0  0  0
  6  8  1  0  0  0  0
  8  9  1  0  0  0  0
  9 21  1  0  0  0  0
  9 10  2  0  0  0  0
 10 22  1  0  0  0  0
 10 11  1  0  0  0  0
 11 23  1  0  0  0  0
 12 24  1  0  0  0  0
 12 13  1  0  0  0  0
 12 19  1  0  0  0  0
 13 14  2  0  0  0  0
 13 15  1  0  0  0  0
 15 25  1  0  0  0  0
 15 16  1  0  0  0  0
 16 17  2  0  0  0  0
 16 18  1  0  0  0  0
 18 26  1  0  0  0  0
 18 27  1  0  0  0  0
 18 19  1  0  0  0  0
 19 28  1  0  0  0  0
 19 29  1  0  0  0  0
M  ZZC   1 c1
M  ZZC   2 c2
M  ZZC   3 c3
M  ZZC   4 o1
M  ZZC   5 n1
M  ZZC   6 c4
M  ZZC   7 o2
M  ZZC   8 c5
M  ZZC   9 c6
M  ZZC  10 c7
M  ZZC  11 c8
M  ZZC  12 c9
M  ZZC  13 c10
M  ZZC  14 o3
M  ZZC  15 n2
M  ZZC  16 c11
M  ZZC  17 o4
M  ZZC  18 c12
M  ZZC  19 c13
M  ZZC  20 h11
M  ZZC  21 h61
M  ZZC  22 h71
M  ZZC  23 h81
M  ZZC  24 h91
M  ZZC  25 h21
M  ZZC  26 h121
M  ZZC  27 h122
M  ZZC  28 h131
M  ZZC  29 h132
M  ZZM   1 37
M  ZZI   1 125
M  ZZM   2 37
M  ZZI   2 124
M  ZZM   3 3
M  ZZI   3 121
M  ZZM   4 7
M  ZZI   4 81
M  ZZM   5 10
M  ZZI   5 192
M  ZZM   6 3
M  ZZI   6 121
M  ZZM   7 7
M  ZZI   7 81
M  ZZM   8 37
M  ZZI   8 124
M  ZZM   9 37
M  ZZI   9 125
M  ZZM  10 37
M  ZZI  10 125
M  ZZM  11 37
M  ZZI  11 125
M  ZZM  12 1
M  ZZI  12 113
M  ZZM  13 3
M  ZZI  13 121
M  ZZM  14 7
M  ZZI  14 81
M  ZZM  15 10
M  ZZI  15 191
M  ZZM  16 3
M  ZZI  16 121
M  ZZM  17 7
M  ZZI  17 81
M  ZZM  18 1
M  ZZI  18 112
M  ZZM  19 1
M  ZZI  19 112
M  ZZM  20 5
M  ZZI  20 1
M  ZZM  21 5
M  ZZI  21 1
M  ZZM  22 5
M  ZZI  22 1
M  ZZM  23 5
M  ZZI  23 1
M  ZZM  24 5
M  ZZI  24 1
M  ZZM  25 28
M  ZZI  25 11
M  ZZM  26 5
M  ZZI  26 1
M  ZZM  27 5
M  ZZI  27 1
M  ZZM  28 5
M  ZZI  28 1
M  ZZM  29 5
M  ZZI  29 1
M  END
> <IX>
1

> <NAME>
Cereblon_6QJU_1.pdb

> <Score>
-19.355713

> <Natom>
29

> <Nflex>
1

> <Hbond>
-3.370691

> <Hphob>
-3.540368

> <VwInt>
-22.700585

> <Dsolv>
12.037645

> <SolEl>
5.643493

> <Eintl>
1.486378

> <RecConf>
ND

> <projPath>
Cereblon_maps/

> <NAME_>
Cereblon_6QJU_1.pdb

$$$$
