Cereblon_4QNQ_31.pdb
  MOLSOFT 04032206233D

 31 33  0  0  1  0  0  0  0  0999 V2000
   78.0671   40.6321   42.6655 N   0  0  0  0  0  0  0  0  0  0  0  0
   78.1250   41.7212   41.7809 C   0  0  0  0  0  0  0  0  0  0  0  0
   77.3001   41.8179   40.6689 C   0  0  0  0  0  0  0  0  0  0  0  0
   76.2318   40.9310   40.2142 C   0  0  0  0  0  0  0  0  0  0  0  0
   75.9812   39.8433   40.7138 O   0  0  0  0  0  0  0  0  0  0  0  0
   75.6133   41.5643   39.1521 N   0  0  0  0  0  0  0  0  0  0  0  0
   76.3457   42.6702   38.7697 C   0  0  0  0  0  0  0  0  0  0  0  0
   76.2499   43.3671   37.7708 O   0  0  0  0  0  0  0  0  0  0  0  0
   77.3798   42.8526   39.7880 C   0  0  0  0  0  0  0  0  0  0  0  0
   78.3244   43.8541   39.9175 C   0  0  0  0  0  0  0  0  0  0  0  0
   79.1889   43.7680   41.0011 C   0  0  0  0  0  0  0  0  0  0  0  0
   79.0864   42.7205   41.9181 C   0  0  0  0  0  0  0  0  0  0  0  0
   74.3686   41.0516   38.5506 C   0  0  1  0  0  0  0  0  0  0  0  0
   73.2275   41.3230   39.5223 C   0  0  0  0  0  0  0  0  0  0  0  0
   73.4009   41.6078   40.6947 O   0  0  0  0  0  0  0  0  0  0  0  0
   71.9591   41.1740   39.0210 N   0  0  0  0  0  0  0  0  0  0  0  0
   71.5846   40.9341   37.7246 C   0  0  0  0  0  0  0  0  0  0  0  0
   70.4235   40.6888   37.4359 O   0  0  0  0  0  0  0  0  0  0  0  0
   72.7030   40.9390   36.7033 C   0  0  0  0  0  0  0  0  0  0  0  0
   73.9383   41.6667   37.2187 C   0  0  0  0  0  0  0  0  0  0  0  0
   78.6539   40.6116   43.4984 H   0  0  0  0  0  0  0  0  0  0  0  0
   77.2674   39.9994   42.6111 H   0  0  0  0  0  0  0  0  0  0  0  0
   78.3844   44.6705   39.2063 H   0  0  0  0  0  0  0  0  0  0  0  0
   79.9485   44.5307   41.1415 H   0  0  0  0  0  0  0  0  0  0  0  0
   79.7752   42.6873   42.7564 H   0  0  0  0  0  0  0  0  0  0  0  0
   74.4691   39.9628   38.4688 H   0  0  0  0  0  0  0  0  0  0  0  0
   71.2065   41.2684   39.6904 H   0  0  0  0  0  0  0  0  0  0  0  0
   72.9421   39.8995   36.4552 H   0  0  0  0  0  0  0  0  0  0  0  0
   72.3406   41.4293   35.7939 H   0  0  0  0  0  0  0  0  0  0  0  0
   74.7344   41.6121   36.4750 H   0  0  0  0  0  0  0  0  0  0  0  0
   73.7046   42.7306   37.3445 H   0  0  0  0  0  0  0  0  0  0  0  0
  1  2  1  0  0  0  0
  1 21  1  0  0  0  0
  1 22  1  0  0  0  0
  2  3  1  0  0  0  0
  2 12  2  0  0  0  0
  3  9  2  0  0  0  0
  3  4  1  0  0  0  0
  4  5  2  0  0  0  0
  4  6  1  0  0  0  0
  6  7  1  0  0  0  0
 13  6  1  0  0  0  0
  7  8  2  0  0  0  0
  7  9  1  0  0  0  0
  9 10  1  0  0  0  0
 10 23  1  0  0  0  0
 10 11  2  0  0  0  0
 11 12  1  0  0  0  0
 11 24  1  0  0  0  0
 12 25  1  0  0  0  0
 13 26  1  0  0  0  0
 13 14  1  0  0  0  0
 13 20  1  0  0  0  0
 14 15  2  0  0  0  0
 14 16  1  0  0  0  0
 16 27  1  0  0  0  0
 16 17  1  0  0  0  0
 17 18  2  0  0  0  0
 17 19  1  0  0  0  0
 19 28  1  0  0  0  0
 19 29  1  0  0  0  0
 19 20  1  0  0  0  0
 20 30  1  0  0  0  0
 20 31  1  0  0  0  0
M  ZZC   1 n1
M  ZZC   2 c1
M  ZZC   3 c2
M  ZZC   4 c3
M  ZZC   5 o1
M  ZZC   6 n2
M  ZZC   7 c4
M  ZZC   8 o2
M  ZZC   9 c5
M  ZZC  10 c6
M  ZZC  11 c7
M  ZZC  12 c8
M  ZZC  13 c9
M  ZZC  14 c10
M  ZZC  15 o3
M  ZZC  16 n3
M  ZZC  17 c11
M  ZZC  18 o4
M  ZZC  19 c12
M  ZZC  20 c13
M  ZZC  21 h11
M  ZZC  22 h12
M  ZZC  23 h61
M  ZZC  24 h71
M  ZZC  25 h81
M  ZZC  26 h91
M  ZZC  27 h31
M  ZZC  28 h121
M  ZZC  29 h122
M  ZZC  30 h131
M  ZZC  31 h132
M  ZZM   1 40
M  ZZI   1 224
M  ZZM   2 37
M  ZZI   2 124
M  ZZM   3 37
M  ZZI   3 124
M  ZZM   4 3
M  ZZI   4 121
M  ZZM   5 7
M  ZZI   5 81
M  ZZM   6 10
M  ZZI   6 192
M  ZZM   7 3
M  ZZI   7 121
M  ZZM   8 7
M  ZZI   8 81
M  ZZM   9 37
M  ZZI   9 124
M  ZZM  10 37
M  ZZI  10 125
M  ZZM  11 37
M  ZZI  11 125
M  ZZM  12 37
M  ZZI  12 125
M  ZZM  13 1
M  ZZI  13 113
M  ZZM  14 3
M  ZZI  14 121
M  ZZM  15 7
M  ZZI  15 81
M  ZZM  16 10
M  ZZI  16 191
M  ZZM  17 3
M  ZZI  17 121
M  ZZM  18 7
M  ZZI  18 81
M  ZZM  19 1
M  ZZI  19 112
M  ZZM  20 1
M  ZZI  20 112
M  ZZM  21 28
M  ZZI  21 11
M  ZZM  22 28
M  ZZI  22 11
M  ZZM  23 5
M  ZZI  23 1
M  ZZM  24 5
M  ZZI  24 1
M  ZZM  25 5
M  ZZI  25 1
M  ZZM  26 5
M  ZZI  26 1
M  ZZM  27 28
M  ZZI  27 11
M  ZZM  28 5
M  ZZI  28 1
M  ZZM  29 5
M  ZZI  29 1
M  ZZM  30 5
M  ZZI  30 1
M  ZZM  31 5
M  ZZI  31 1
M  END
> <IX>
1

> <NAME>
Cereblon_4QNQ_31.pdb

> <Score>
-14.416873

> <Natom>
31

> <Nflex>
1

> <Hbond>
-2.725561

> <Hphob>
-3.773459

> <VwInt>
-27.057551

> <Dsolv>
17.184335

> <SolEl>
7.57134

> <Eintl>
5.965382

> <RecConf>
ND

> <projPath>
Cereblon_maps/

> <NAME_>
Cereblon_4QNQ_31.pdb

$$$$
