Cereblon_6C7R_5.pdb
  MOLSOFT 04032206283D

 31 33  0  0  1  0  0  0  0  0999 V2000
   78.8164   41.6847   43.8162 N   0  0  0  0  0  0  0  0  0  0  0  0
   78.9047   42.4313   42.6311 C   0  0  0  0  0  0  0  0  0  0  0  0
   78.1009   42.1616   41.5363 C   0  0  0  0  0  0  0  0  0  0  0  0
   77.1800   41.0506   41.3315 C   0  0  0  0  0  0  0  0  0  0  0  0
   76.9955   40.1712   42.1601 O   0  0  0  0  0  0  0  0  0  0  0  0
   76.6481   41.2112   40.0675 N   0  0  0  0  0  0  0  0  0  0  0  0
   77.1681   42.3318   39.4525 C   0  0  0  0  0  0  0  0  0  0  0  0
   76.9532   42.7533   38.3234 O   0  0  0  0  0  0  0  0  0  0  0  0
   78.0991   42.9292   40.4112 C   0  0  0  0  0  0  0  0  0  0  0  0
   78.9101   44.0385   40.2884 C   0  0  0  0  0  0  0  0  0  0  0  0
   79.7270   44.3399   41.3722 C   0  0  0  0  0  0  0  0  0  0  0  0
   79.7125   43.5600   42.5301 C   0  0  0  0  0  0  0  0  0  0  0  0
   75.6275   40.3745   39.4328 C   0  0  2  0  0  0  0  0  0  0  0  0
   74.2557   40.9507   39.7399 C   0  0  0  0  0  0  0  0  0  0  0  0
   74.0839   42.1311   39.9960 O   0  0  0  0  0  0  0  0  0  0  0  0
   73.1963   40.0832   39.6302 N   0  0  0  0  0  0  0  0  0  0  0  0
   73.2224   38.7453   39.3184 C   0  0  0  0  0  0  0  0  0  0  0  0
   72.1984   38.0898   39.2150 O   0  0  0  0  0  0  0  0  0  0  0  0
   74.5857   38.1497   39.0587 C   0  0  0  0  0  0  0  0  0  0  0  0
   75.6634   38.8997   39.8213 C   0  0  0  0  0  0  0  0  0  0  0  0
   79.5423   41.7817   44.5230 H   0  0  0  0  0  0  0  0  0  0  0  0
   78.3075   40.7997   43.7863 H   0  0  0  0  0  0  0  0  0  0  0  0
   78.9031   44.6444   39.3900 H   0  0  0  0  0  0  0  0  0  0  0  0
   80.3764   45.2070   41.3257 H   0  0  0  0  0  0  0  0  0  0  0  0
   80.3451   43.8429   43.3660 H   0  0  0  0  0  0  0  0  0  0  0  0
   75.7598   40.4749   38.3542 H   0  0  0  0  0  0  0  0  0  0  0  0
   72.2809   40.4835   39.7943 H   0  0  0  0  0  0  0  0  0  0  0  0
   74.5737   37.1012   39.3727 H   0  0  0  0  0  0  0  0  0  0  0  0
   74.7700   38.1785   37.9803 H   0  0  0  0  0  0  0  0  0  0  0  0
   75.4805   38.7712   40.8921 H   0  0  0  0  0  0  0  0  0  0  0  0
   76.6484   38.4701   39.6120 H   0  0  0  0  0  0  0  0  0  0  0  0
  1  2  1  0  0  0  0
  1 21  1  0  0  0  0
  1 22  1  0  0  0  0
  2  3  1  0  0  0  0
  2 12  2  0  0  0  0
  3  9  2  0  0  0  0
  3  4  1  0  0  0  0
  4  5  2  0  0  0  0
  4  6  1  0  0  0  0
  6  7  1  0  0  0  0
 13  6  1  0  0  0  0
  7  8  2  0  0  0  0
  7  9  1  0  0  0  0
  9 10  1  0  0  0  0
 10 23  1  0  0  0  0
 10 11  2  0  0  0  0
 11 12  1  0  0  0  0
 11 24  1  0  0  0  0
 12 25  1  0  0  0  0
 13 26  1  0  0  0  0
 13 14  1  0  0  0  0
 13 20  1  0  0  0  0
 14 15  2  0  0  0  0
 14 16  1  0  0  0  0
 16 27  1  0  0  0  0
 16 17  1  0  0  0  0
 17 18  2  0  0  0  0
 17 19  1  0  0  0  0
 19 28  1  0  0  0  0
 19 29  1  0  0  0  0
 19 20  1  0  0  0  0
 20 30  1  0  0  0  0
 20 31  1  0  0  0  0
M  ZZC   1 n1
M  ZZC   2 c1
M  ZZC   3 c2
M  ZZC   4 c3
M  ZZC   5 o1
M  ZZC   6 n2
M  ZZC   7 c4
M  ZZC   8 o2
M  ZZC   9 c5
M  ZZC  10 c6
M  ZZC  11 c7
M  ZZC  12 c8
M  ZZC  13 c9
M  ZZC  14 c10
M  ZZC  15 o3
M  ZZC  16 n3
M  ZZC  17 c11
M  ZZC  18 o4
M  ZZC  19 c12
M  ZZC  20 c13
M  ZZC  21 h11
M  ZZC  22 h12
M  ZZC  23 h61
M  ZZC  24 h71
M  ZZC  25 h81
M  ZZC  26 h91
M  ZZC  27 h31
M  ZZC  28 h121
M  ZZC  29 h122
M  ZZC  30 h131
M  ZZC  31 h132
M  ZZM   1 40
M  ZZI   1 224
M  ZZM   2 37
M  ZZI   2 124
M  ZZM   3 37
M  ZZI   3 124
M  ZZM   4 3
M  ZZI   4 121
M  ZZM   5 7
M  ZZI   5 81
M  ZZM   6 10
M  ZZI   6 192
M  ZZM   7 3
M  ZZI   7 121
M  ZZM   8 7
M  ZZI   8 81
M  ZZM   9 37
M  ZZI   9 124
M  ZZM  10 37
M  ZZI  10 125
M  ZZM  11 37
M  ZZI  11 125
M  ZZM  12 37
M  ZZI  12 125
M  ZZM  13 1
M  ZZI  13 113
M  ZZM  14 3
M  ZZI  14 121
M  ZZM  15 7
M  ZZI  15 81
M  ZZM  16 10
M  ZZI  16 191
M  ZZM  17 3
M  ZZI  17 121
M  ZZM  18 7
M  ZZI  18 81
M  ZZM  19 1
M  ZZI  19 112
M  ZZM  20 1
M  ZZI  20 112
M  ZZM  21 28
M  ZZI  21 11
M  ZZM  22 28
M  ZZI  22 11
M  ZZM  23 5
M  ZZI  23 1
M  ZZM  24 5
M  ZZI  24 1
M  ZZM  25 5
M  ZZI  25 1
M  ZZM  26 5
M  ZZI  26 1
M  ZZM  27 28
M  ZZI  27 11
M  ZZM  28 5
M  ZZI  28 1
M  ZZM  29 5
M  ZZI  29 1
M  ZZM  30 5
M  ZZI  30 1
M  ZZM  31 5
M  ZZI  31 1
M  END
> <IX>
1

> <NAME>
Cereblon_6C7R_5.pdb

> <Score>
-18.456598

> <Natom>
31

> <Nflex>
1

> <Hbond>
-3.670804

> <Hphob>
-3.56111

> <VwInt>
-24.270766

> <Dsolv>
15.058511

> <SolEl>
6.98782

> <Eintl>
1.635668

> <RecConf>
ND

> <projPath>
Cereblon_maps/

> <NAME_>
Cereblon_6C7R_5.pdb

$$$$
