Cereblon_4QNQ_33.pdb
  MOLSOFT 04032206233D

 31 33  0  0  1  0  0  0  0  0999 V2000
   83.5449   57.1296   19.5781 N   0  0  0  0  0  0  0  0  0  0  0  0
   82.6774   56.0394   19.7428 C   0  0  0  0  0  0  0  0  0  0  0  0
   81.5602   56.0856   20.5649 C   0  0  0  0  0  0  0  0  0  0  0  0
   80.9939   57.1980   21.3279 C   0  0  0  0  0  0  0  0  0  0  0  0
   81.4672   58.3255   21.3545 O   0  0  0  0  0  0  0  0  0  0  0  0
   79.8750   56.7035   21.9661 N   0  0  0  0  0  0  0  0  0  0  0  0
   79.6726   55.3762   21.6484 C   0  0  0  0  0  0  0  0  0  0  0  0
   78.7599   54.6255   21.9580 O   0  0  0  0  0  0  0  0  0  0  0  0
   80.7762   54.9930   20.7770 C   0  0  0  0  0  0  0  0  0  0  0  0
   81.0561   53.7642   20.2177 C   0  0  0  0  0  0  0  0  0  0  0  0
   82.1837   53.6810   19.4207 C   0  0  0  0  0  0  0  0  0  0  0  0
   82.9766   54.7988   19.1890 C   0  0  0  0  0  0  0  0  0  0  0  0
   78.9893   57.5101   22.8114 C   0  0  1  0  0  0  0  0  0  0  0  0
   77.6607   57.6957   22.0950 C   0  0  0  0  0  0  0  0  0  0  0  0
   77.5596   57.7441   20.8777 O   0  0  0  0  0  0  0  0  0  0  0  0
   76.5677   57.8737   22.9093 N   0  0  0  0  0  0  0  0  0  0  0  0
   76.5024   57.9181   24.2796 C   0  0  0  0  0  0  0  0  0  0  0  0
   75.4507   58.1060   24.8696 O   0  0  0  0  0  0  0  0  0  0  0  0
   77.8186   57.7842   25.0020 C   0  0  0  0  0  0  0  0  0  0  0  0
   78.7726   56.9225   24.2022 C   0  0  0  0  0  0  0  0  0  0  0  0
   84.2367   57.0882   18.8304 H   0  0  0  0  0  0  0  0  0  0  0  0
   83.2308   58.0460   19.9002 H   0  0  0  0  0  0  0  0  0  0  0  0
   80.4248   52.9016   20.3894 H   0  0  0  0  0  0  0  0  0  0  0  0
   82.4526   52.7319   18.9737 H   0  0  0  0  0  0  0  0  0  0  0  0
   83.8514   54.6873   18.5620 H   0  0  0  0  0  0  0  0  0  0  0  0
   79.4317   58.5079   22.9101 H   0  0  0  0  0  0  0  0  0  0  0  0
   75.6956   58.0372   22.4258 H   0  0  0  0  0  0  0  0  0  0  0  0
   78.2316   58.7854   25.1625 H   0  0  0  0  0  0  0  0  0  0  0  0
   77.6396   57.3269   25.9802 H   0  0  0  0  0  0  0  0  0  0  0  0
   79.7273   56.8393   24.7296 H   0  0  0  0  0  0  0  0  0  0  0  0
   78.3506   55.9187   24.1326 H   0  0  0  0  0  0  0  0  0  0  0  0
  1  2  1  0  0  0  0
  1 21  1  0  0  0  0
  1 22  1  0  0  0  0
  2  3  1  0  0  0  0
  2 12  2  0  0  0  0
  3  9  2  0  0  0  0
  3  4  1  0  0  0  0
  4  5  2  0  0  0  0
  4  6  1  0  0  0  0
  6  7  1  0  0  0  0
 13  6  1  0  0  0  0
  7  8  2  0  0  0  0
  7  9  1  0  0  0  0
  9 10  1  0  0  0  0
 10 23  1  0  0  0  0
 10 11  2  0  0  0  0
 11 12  1  0  0  0  0
 11 24  1  0  0  0  0
 12 25  1  0  0  0  0
 13 26  1  0  0  0  0
 13 14  1  0  0  0  0
 13 20  1  0  0  0  0
 14 15  2  0  0  0  0
 14 16  1  0  0  0  0
 16 27  1  0  0  0  0
 16 17  1  0  0  0  0
 17 18  2  0  0  0  0
 17 19  1  0  0  0  0
 19 28  1  0  0  0  0
 19 29  1  0  0  0  0
 19 20  1  0  0  0  0
 20 30  1  0  0  0  0
 20 31  1  0  0  0  0
M  ZZC   1 n1
M  ZZC   2 c1
M  ZZC   3 c2
M  ZZC   4 c3
M  ZZC   5 o1
M  ZZC   6 n2
M  ZZC   7 c4
M  ZZC   8 o2
M  ZZC   9 c5
M  ZZC  10 c6
M  ZZC  11 c7
M  ZZC  12 c8
M  ZZC  13 c9
M  ZZC  14 c10
M  ZZC  15 o3
M  ZZC  16 n3
M  ZZC  17 c11
M  ZZC  18 o4
M  ZZC  19 c12
M  ZZC  20 c13
M  ZZC  21 h11
M  ZZC  22 h12
M  ZZC  23 h61
M  ZZC  24 h71
M  ZZC  25 h81
M  ZZC  26 h91
M  ZZC  27 h31
M  ZZC  28 h121
M  ZZC  29 h122
M  ZZC  30 h131
M  ZZC  31 h132
M  ZZM   1 40
M  ZZI   1 224
M  ZZM   2 37
M  ZZI   2 124
M  ZZM   3 37
M  ZZI   3 124
M  ZZM   4 3
M  ZZI   4 121
M  ZZM   5 7
M  ZZI   5 81
M  ZZM   6 10
M  ZZI   6 192
M  ZZM   7 3
M  ZZI   7 121
M  ZZM   8 7
M  ZZI   8 81
M  ZZM   9 37
M  ZZI   9 124
M  ZZM  10 37
M  ZZI  10 125
M  ZZM  11 37
M  ZZI  11 125
M  ZZM  12 37
M  ZZI  12 125
M  ZZM  13 1
M  ZZI  13 113
M  ZZM  14 3
M  ZZI  14 121
M  ZZM  15 7
M  ZZI  15 81
M  ZZM  16 10
M  ZZI  16 191
M  ZZM  17 3
M  ZZI  17 121
M  ZZM  18 7
M  ZZI  18 81
M  ZZM  19 1
M  ZZI  19 112
M  ZZM  20 1
M  ZZI  20 112
M  ZZM  21 28
M  ZZI  21 11
M  ZZM  22 28
M  ZZI  22 11
M  ZZM  23 5
M  ZZI  23 1
M  ZZM  24 5
M  ZZI  24 1
M  ZZM  25 5
M  ZZI  25 1
M  ZZM  26 5
M  ZZI  26 1
M  ZZM  27 28
M  ZZI  27 11
M  ZZM  28 5
M  ZZI  28 1
M  ZZM  29 5
M  ZZI  29 1
M  ZZM  30 5
M  ZZI  30 1
M  ZZM  31 5
M  ZZI  31 1
M  END
> <IX>
1

> <NAME>
Cereblon_4QNQ_33.pdb

> <Score>
-12.627631

> <Natom>
31

> <Nflex>
1

> <Hbond>
-0.392862

> <Hphob>
-3.325861

> <VwInt>
-21.243923

> <Dsolv>
12.644975

> <SolEl>
2.050111

> <Eintl>
0.669591

> <RecConf>
ND

> <projPath>
Cereblon_maps/

> <NAME_>
Cereblon_4QNQ_33.pdb

$$$$
