Cereblon_5VBP_11.pdb
  MOLSOFT 04032206273D

 29 31  0  0  1  0  0  0  0  0999 V2000
   76.3124   40.4920   40.6521 C   0  0  0  0  0  0  0  0  0  0  0  0
   75.3234   40.2838   39.7081 C   0  0  0  0  0  0  0  0  0  0  0  0
   74.4515   41.2476   39.0434 C   0  0  0  0  0  0  0  0  0  0  0  0
   74.4435   42.4326   39.3389 O   0  0  0  0  0  0  0  0  0  0  0  0
   73.6891   40.5322   38.1378 N   0  0  0  0  0  0  0  0  0  0  0  0
   73.9551   39.1814   38.2456 C   0  0  0  0  0  0  0  0  0  0  0  0
   73.4493   38.2397   37.6526 O   0  0  0  0  0  0  0  0  0  0  0  0
   75.0125   39.0432   39.2454 C   0  0  0  0  0  0  0  0  0  0  0  0
   75.6592   37.9090   39.7016 C   0  0  0  0  0  0  0  0  0  0  0  0
   76.6559   38.0935   40.6537 C   0  0  0  0  0  0  0  0  0  0  0  0
   76.9788   39.3673   41.1223 C   0  0  0  0  0  0  0  0  0  0  0  0
   72.6579   41.0698   37.2376 C   0  0  1  0  0  0  0  0  0  0  0  0
   71.3512   41.2754   37.9975 C   0  0  0  0  0  0  0  0  0  0  0  0
   71.0388   40.6220   38.9823 O   0  0  0  0  0  0  0  0  0  0  0  0
   70.4806   42.1945   37.4577 N   0  0  0  0  0  0  0  0  0  0  0  0
   70.6717   43.0428   36.3988 C   0  0  0  0  0  0  0  0  0  0  0  0
   69.8485   43.8994   36.1144 O   0  0  0  0  0  0  0  0  0  0  0  0
   71.9416   42.8300   35.6140 C   0  0  0  0  0  0  0  0  0  0  0  0
   73.0706   42.3491   36.5122 C   0  0  0  0  0  0  0  0  0  0  0  0
   76.5668   41.4865   41.0048 H   0  0  0  0  0  0  0  0  0  0  0  0
   75.4062   36.9204   39.3298 H   0  0  0  0  0  0  0  0  0  0  0  0
   77.1943   37.2324   41.0374 H   0  0  0  0  0  0  0  0  0  0  0  0
   77.7624   39.4837   41.8651 H   0  0  0  0  0  0  0  0  0  0  0  0
   72.4456   40.2983   36.4882 H   0  0  0  0  0  0  0  0  0  0  0  0
   69.6104   42.3243   37.9527 H   0  0  0  0  0  0  0  0  0  0  0  0
   71.7383   42.1110   34.8131 H   0  0  0  0  0  0  0  0  0  0  0  0
   72.2180   43.7815   35.1561 H   0  0  0  0  0  0  0  0  0  0  0  0
   73.9722   42.1723   35.9170 H   0  0  0  0  0  0  0  0  0  0  0  0
   73.3181   43.1426   37.2225 H   0  0  0  0  0  0  0  0  0  0  0  0
  1 20  1  0  0  0  0
  1  2  1  0  0  0  0
  1 11  2  0  0  0  0
  2  3  1  0  0  0  0
  2  8  2  0  0  0  0
  3  4  2  0  0  0  0
  3  5  1  0  0  0  0
  5  6  1  0  0  0  0
 12  5  1  0  0  0  0
  6  7  2  0  0  0  0
  6  8  1  0  0  0  0
  8  9  1  0  0  0  0
  9 21  1  0  0  0  0
  9 10  2  0  0  0  0
 10 22  1  0  0  0  0
 10 11  1  0  0  0  0
 11 23  1  0  0  0  0
 12 24  1  0  0  0  0
 12 13  1  0  0  0  0
 12 19  1  0  0  0  0
 13 14  2  0  0  0  0
 13 15  1  0  0  0  0
 15 25  1  0  0  0  0
 15 16  1  0  0  0  0
 16 17  2  0  0  0  0
 16 18  1  0  0  0  0
 18 26  1  0  0  0  0
 18 27  1  0  0  0  0
 18 19  1  0  0  0  0
 19 28  1  0  0  0  0
 19 29  1  0  0  0  0
M  ZZC   1 c1
M  ZZC   2 c2
M  ZZC   3 c3
M  ZZC   4 o1
M  ZZC   5 n1
M  ZZC   6 c4
M  ZZC   7 o2
M  ZZC   8 c5
M  ZZC   9 c6
M  ZZC  10 c7
M  ZZC  11 c8
M  ZZC  12 c9
M  ZZC  13 c10
M  ZZC  14 o3
M  ZZC  15 n2
M  ZZC  16 c11
M  ZZC  17 o4
M  ZZC  18 c12
M  ZZC  19 c13
M  ZZC  20 h11
M  ZZC  21 h61
M  ZZC  22 h71
M  ZZC  23 h81
M  ZZC  24 h91
M  ZZC  25 h21
M  ZZC  26 h121
M  ZZC  27 h122
M  ZZC  28 h131
M  ZZC  29 h132
M  ZZM   1 37
M  ZZI   1 125
M  ZZM   2 37
M  ZZI   2 124
M  ZZM   3 3
M  ZZI   3 121
M  ZZM   4 7
M  ZZI   4 81
M  ZZM   5 10
M  ZZI   5 192
M  ZZM   6 3
M  ZZI   6 121
M  ZZM   7 7
M  ZZI   7 81
M  ZZM   8 37
M  ZZI   8 124
M  ZZM   9 37
M  ZZI   9 125
M  ZZM  10 37
M  ZZI  10 125
M  ZZM  11 37
M  ZZI  11 125
M  ZZM  12 1
M  ZZI  12 113
M  ZZM  13 3
M  ZZI  13 121
M  ZZM  14 7
M  ZZI  14 81
M  ZZM  15 10
M  ZZI  15 191
M  ZZM  16 3
M  ZZI  16 121
M  ZZM  17 7
M  ZZI  17 81
M  ZZM  18 1
M  ZZI  18 112
M  ZZM  19 1
M  ZZI  19 112
M  ZZM  20 5
M  ZZI  20 1
M  ZZM  21 5
M  ZZI  21 1
M  ZZM  22 5
M  ZZI  22 1
M  ZZM  23 5
M  ZZI  23 1
M  ZZM  24 5
M  ZZI  24 1
M  ZZM  25 28
M  ZZI  25 11
M  ZZM  26 5
M  ZZI  26 1
M  ZZM  27 5
M  ZZI  27 1
M  ZZM  28 5
M  ZZI  28 1
M  ZZM  29 5
M  ZZI  29 1
M  END
> <IX>
1

> <NAME>
Cereblon_5VBP_11.pdb

> <Score>
-20.567243

> <Natom>
29

> <Nflex>
1

> <Hbond>
-4.586015

> <Hphob>
-3.543546

> <VwInt>
-22.288489

> <Dsolv>
13.479235

> <SolEl>
7.032158

> <Eintl>
0.57898

> <RecConf>
ND

> <projPath>
Cereblon_maps/

> <NAME_>
Cereblon_5VBP_11.pdb

$$$$
