Cereblon_5VBP_27.pdb
  MOLSOFT 04032206273D

 30 32  0  0  1  0  0  0  0  0999 V2000
   74.3436   36.9545   37.8092 C   0  0  0  0  0  0  0  0  0  0  0  0
   73.9630   38.2796   37.9398 C   0  0  0  0  0  0  0  0  0  0  0  0
   74.5008   39.0551   38.9321 C   0  0  0  0  0  0  0  0  0  0  0  0
   73.9139   40.3945   38.8406 C   0  0  0  0  0  0  0  0  0  0  0  0
   74.1959   41.3224   39.5884 O   0  0  0  0  0  0  0  0  0  0  0  0
   73.0299   40.3590   37.7755 N   0  0  0  0  0  0  0  0  0  0  0  0
   72.1835   41.4864   37.3823 C   0  0  2  0  0  0  0  0  0  0  0  0
   70.6878   41.2265   37.5429 C   0  0  0  0  0  0  0  0  0  0  0  0
   70.1895   40.3133   38.1837 O   0  0  0  0  0  0  0  0  0  0  0  0
   69.8822   42.1617   36.9480 N   0  0  0  0  0  0  0  0  0  0  0  0
   70.2566   43.2296   36.1820 C   0  0  0  0  0  0  0  0  0  0  0  0
   69.4533   44.1116   35.9357 O   0  0  0  0  0  0  0  0  0  0  0  0
   71.7009   43.2870   35.7378 C   0  0  0  0  0  0  0  0  0  0  0  0
   72.4385   41.9731   35.9617 C   0  0  0  0  0  0  0  0  0  0  0  0
   72.9977   39.0618   37.1233 C   0  0  0  0  0  0  0  0  0  0  0  0
   75.4353   38.5848   39.8366 C   0  0  0  0  0  0  0  0  0  0  0  0
   75.8175   37.2562   39.7115 C   0  0  0  0  0  0  0  0  0  0  0  0
   75.2752   36.4517   38.7105 C   0  0  0  0  0  0  0  0  0  0  0  0
   73.9301   36.3246   37.0274 H   0  0  0  0  0  0  0  0  0  0  0  0
   72.4319   42.2919   38.0721 H   0  0  0  0  0  0  0  0  0  0  0  0
   68.8883   42.0850   37.1319 H   0  0  0  0  0  0  0  0  0  0  0  0
   71.7200   43.5407   34.6745 H   0  0  0  0  0  0  0  0  0  0  0  0
   72.1874   44.0977   36.2901 H   0  0  0  0  0  0  0  0  0  0  0  0
   72.0951   41.2277   35.2348 H   0  0  0  0  0  0  0  0  0  0  0  0
   73.5102   42.1164   35.7866 H   0  0  0  0  0  0  0  0  0  0  0  0
   73.3317   39.1635   36.0850 H   0  0  0  0  0  0  0  0  0  0  0  0
   71.9898   38.6376   37.1754 H   0  0  0  0  0  0  0  0  0  0  0  0
   75.8519   39.2243   40.6091 H   0  0  0  0  0  0  0  0  0  0  0  0
   76.5491   36.8417   40.3980 H   0  0  0  0  0  0  0  0  0  0  0  0
   75.5920   35.4166   38.6267 H   0  0  0  0  0  0  0  0  0  0  0  0
  1 19  1  0  0  0  0
  1 18  2  0  0  0  0
  1  2  1  0  0  0  0
  2  3  2  0  0  0  0
  2 15  1  0  0  0  0
  3 16  1  0  0  0  0
  3  4  1  0  0  0  0
  4  6  1  0  0  0  0
  4  5  2  0  0  0  0
  6 15  1  0  0  0  0
  7  6  1  0  0  0  0
  7 20  1  0  0  0  0
  7  8  1  0  0  0  0
  7 14  1  0  0  0  0
  8  9  2  0  0  0  0
  8 10  1  0  0  0  0
 10 21  1  0  0  0  0
 10 11  1  0  0  0  0
 11 12  2  0  0  0  0
 11 13  1  0  0  0  0
 13 22  1  0  0  0  0
 13 23  1  0  0  0  0
 13 14  1  0  0  0  0
 14 24  1  0  0  0  0
 14 25  1  0  0  0  0
 15 26  1  0  0  0  0
 15 27  1  0  0  0  0
 16 17  2  0  0  0  0
 16 28  1  0  0  0  0
 17 18  1  0  0  0  0
 17 29  1  0  0  0  0
 18 30  1  0  0  0  0
M  ZZC   1 c1
M  ZZC   2 c2
M  ZZC   3 c3
M  ZZC   4 c4
M  ZZC   5 o1
M  ZZC   6 n1
M  ZZC   7 c5
M  ZZC   8 c6
M  ZZC   9 o2
M  ZZC  10 n2
M  ZZC  11 c7
M  ZZC  12 o3
M  ZZC  13 c8
M  ZZC  14 c9
M  ZZC  15 c10
M  ZZC  16 c11
M  ZZC  17 c12
M  ZZC  18 c13
M  ZZC  19 h11
M  ZZC  20 h51
M  ZZC  21 h21
M  ZZC  22 h81
M  ZZC  23 h82
M  ZZC  24 h91
M  ZZC  25 h92
M  ZZC  26 h101
M  ZZC  27 h102
M  ZZC  28 h111
M  ZZC  29 h121
M  ZZC  30 h131
M  ZZM   1 37
M  ZZI   1 125
M  ZZM   2 37
M  ZZI   2 124
M  ZZM   3 37
M  ZZI   3 124
M  ZZM   4 3
M  ZZI   4 121
M  ZZM   5 7
M  ZZI   5 81
M  ZZM   6 10
M  ZZI   6 192
M  ZZM   7 1
M  ZZI   7 113
M  ZZM   8 3
M  ZZI   8 121
M  ZZM   9 7
M  ZZI   9 81
M  ZZM  10 10
M  ZZI  10 191
M  ZZM  11 3
M  ZZI  11 121
M  ZZM  12 7
M  ZZI  12 81
M  ZZM  13 1
M  ZZI  13 112
M  ZZM  14 1
M  ZZI  14 112
M  ZZM  15 1
M  ZZI  15 112
M  ZZM  16 37
M  ZZI  16 125
M  ZZM  17 37
M  ZZI  17 125
M  ZZM  18 37
M  ZZI  18 125
M  ZZM  19 5
M  ZZI  19 1
M  ZZM  20 5
M  ZZI  20 1
M  ZZM  21 28
M  ZZI  21 11
M  ZZM  22 5
M  ZZI  22 1
M  ZZM  23 5
M  ZZI  23 1
M  ZZM  24 5
M  ZZI  24 1
M  ZZM  25 5
M  ZZI  25 1
M  ZZM  26 5
M  ZZI  26 1
M  ZZM  27 5
M  ZZI  27 1
M  ZZM  28 5
M  ZZI  28 1
M  ZZM  29 5
M  ZZI  29 1
M  ZZM  30 5
M  ZZI  30 1
M  END
> <IX>
1

> <NAME>
Cereblon_5VBP_27.pdb

> <Score>
-19.4689

> <Natom>
30

> <Nflex>
1

> <Hbond>
-5.687169

> <Hphob>
-3.313762

> <VwInt>
-17.029177

> <Dsolv>
12.008971

> <SolEl>
5.2295

> <Eintl>
1.851396

> <RecConf>
ND

> <projPath>
Cereblon_maps/

> <NAME_>
Cereblon_5VBP_27.pdb

$$$$
