Cereblon_6GFZ_5.pdb
  MOLSOFT 04032206283D

 31 33  0  0  1  0  0  0  0  0999 V2000
   78.0704   40.6243   42.6690 N   0  0  0  0  0  0  0  0  0  0  0  0
   78.1274   41.7178   41.7897 C   0  0  0  0  0  0  0  0  0  0  0  0
   77.3047   41.8175   40.6762 C   0  0  0  0  0  0  0  0  0  0  0  0
   76.2366   40.9320   40.2182 C   0  0  0  0  0  0  0  0  0  0  0  0
   75.9837   39.8440   40.7161 O   0  0  0  0  0  0  0  0  0  0  0  0
   75.6215   41.5666   39.1549 N   0  0  0  0  0  0  0  0  0  0  0  0
   76.3515   42.6764   38.7798 C   0  0  0  0  0  0  0  0  0  0  0  0
   76.2527   43.3801   37.7859 O   0  0  0  0  0  0  0  0  0  0  0  0
   77.3850   42.8557   39.7991 C   0  0  0  0  0  0  0  0  0  0  0  0
   78.3286   43.8577   39.9337 C   0  0  0  0  0  0  0  0  0  0  0  0
   79.1918   43.7671   41.0178 C   0  0  0  0  0  0  0  0  0  0  0  0
   79.0888   42.7165   41.9312 C   0  0  0  0  0  0  0  0  0  0  0  0
   74.3770   41.0559   38.5514 C   0  0  1  0  0  0  0  0  0  0  0  0
   73.2346   41.3268   39.5212 C   0  0  0  0  0  0  0  0  0  0  0  0
   73.4056   41.6084   40.6949 O   0  0  0  0  0  0  0  0  0  0  0  0
   71.9671   41.1814   39.0166 N   0  0  0  0  0  0  0  0  0  0  0  0
   71.5952   40.9447   37.7188 C   0  0  0  0  0  0  0  0  0  0  0  0
   70.4345   40.7005   37.4271 O   0  0  0  0  0  0  0  0  0  0  0  0
   72.7160   40.9480   36.7000 C   0  0  0  0  0  0  0  0  0  0  0  0
   73.9508   41.6737   37.2192 C   0  0  0  0  0  0  0  0  0  0  0  0
   78.6440   40.6117   43.5112 H   0  0  0  0  0  0  0  0  0  0  0  0
   77.2700   39.9929   42.6109 H   0  0  0  0  0  0  0  0  0  0  0  0
   78.3916   44.6783   39.2276 H   0  0  0  0  0  0  0  0  0  0  0  0
   79.9508   44.5297   41.1630 H   0  0  0  0  0  0  0  0  0  0  0  0
   79.7759   42.6814   42.7707 H   0  0  0  0  0  0  0  0  0  0  0  0
   74.4767   39.9673   38.4676 H   0  0  0  0  0  0  0  0  0  0  0  0
   71.2129   41.2765   39.6843 H   0  0  0  0  0  0  0  0  0  0  0  0
   72.9543   39.9083   36.4521 H   0  0  0  0  0  0  0  0  0  0  0  0
   72.3566   41.4393   35.7899 H   0  0  0  0  0  0  0  0  0  0  0  0
   74.7484   41.6199   36.4771 H   0  0  0  0  0  0  0  0  0  0  0  0
   73.7174   42.7375   37.3461 H   0  0  0  0  0  0  0  0  0  0  0  0
  1  2  1  0  0  0  0
  1 21  1  0  0  0  0
  1 22  1  0  0  0  0
  2  3  1  0  0  0  0
  2 12  2  0  0  0  0
  3  9  2  0  0  0  0
  3  4  1  0  0  0  0
  4  5  2  0  0  0  0
  4  6  1  0  0  0  0
  6  7  1  0  0  0  0
 13  6  1  0  0  0  0
  7  8  2  0  0  0  0
  7  9  1  0  0  0  0
  9 10  1  0  0  0  0
 10 23  1  0  0  0  0
 10 11  2  0  0  0  0
 11 12  1  0  0  0  0
 11 24  1  0  0  0  0
 12 25  1  0  0  0  0
 13 26  1  0  0  0  0
 13 14  1  0  0  0  0
 13 20  1  0  0  0  0
 14 15  2  0  0  0  0
 14 16  1  0  0  0  0
 16 27  1  0  0  0  0
 16 17  1  0  0  0  0
 17 18  2  0  0  0  0
 17 19  1  0  0  0  0
 19 28  1  0  0  0  0
 19 29  1  0  0  0  0
 19 20  1  0  0  0  0
 20 30  1  0  0  0  0
 20 31  1  0  0  0  0
M  ZZC   1 n1
M  ZZC   2 c1
M  ZZC   3 c2
M  ZZC   4 c3
M  ZZC   5 o1
M  ZZC   6 n2
M  ZZC   7 c4
M  ZZC   8 o2
M  ZZC   9 c5
M  ZZC  10 c6
M  ZZC  11 c7
M  ZZC  12 c8
M  ZZC  13 c9
M  ZZC  14 c10
M  ZZC  15 o3
M  ZZC  16 n3
M  ZZC  17 c11
M  ZZC  18 o4
M  ZZC  19 c12
M  ZZC  20 c13
M  ZZC  21 h11
M  ZZC  22 h12
M  ZZC  23 h61
M  ZZC  24 h71
M  ZZC  25 h81
M  ZZC  26 h91
M  ZZC  27 h31
M  ZZC  28 h121
M  ZZC  29 h122
M  ZZC  30 h131
M  ZZC  31 h132
M  ZZM   1 40
M  ZZI   1 224
M  ZZM   2 37
M  ZZI   2 124
M  ZZM   3 37
M  ZZI   3 124
M  ZZM   4 3
M  ZZI   4 121
M  ZZM   5 7
M  ZZI   5 81
M  ZZM   6 10
M  ZZI   6 192
M  ZZM   7 3
M  ZZI   7 121
M  ZZM   8 7
M  ZZI   8 81
M  ZZM   9 37
M  ZZI   9 124
M  ZZM  10 37
M  ZZI  10 125
M  ZZM  11 37
M  ZZI  11 125
M  ZZM  12 37
M  ZZI  12 125
M  ZZM  13 1
M  ZZI  13 113
M  ZZM  14 3
M  ZZI  14 121
M  ZZM  15 7
M  ZZI  15 81
M  ZZM  16 10
M  ZZI  16 191
M  ZZM  17 3
M  ZZI  17 121
M  ZZM  18 7
M  ZZI  18 81
M  ZZM  19 1
M  ZZI  19 112
M  ZZM  20 1
M  ZZI  20 112
M  ZZM  21 28
M  ZZI  21 11
M  ZZM  22 28
M  ZZI  22 11
M  ZZM  23 5
M  ZZI  23 1
M  ZZM  24 5
M  ZZI  24 1
M  ZZM  25 5
M  ZZI  25 1
M  ZZM  26 5
M  ZZI  26 1
M  ZZM  27 28
M  ZZI  27 11
M  ZZM  28 5
M  ZZI  28 1
M  ZZM  29 5
M  ZZI  29 1
M  ZZM  30 5
M  ZZI  30 1
M  ZZM  31 5
M  ZZI  31 1
M  END
> <IX>
1

> <NAME>
Cereblon_6GFZ_5.pdb

> <Score>
-14.268753

> <Natom>
31

> <Nflex>
1

> <Hbond>
-2.722983

> <Hphob>
-3.730921

> <VwInt>
-26.935318

> <Dsolv>
17.247623

> <SolEl>
7.583968

> <Eintl>
5.857155

> <RecConf>
ND

> <projPath>
Cereblon_maps/

> <NAME_>
Cereblon_6GFZ_5.pdb

$$$$
