Cereblon_2EUF_1.pdb
  MOLSOFT 04032206193D

 31 33  0  0  1  0  0  0  0  0999 V2000
   78.8133   41.6777   43.8186 N   0  0  0  0  0  0  0  0  0  0  0  0
   78.9062   42.4223   42.6322 C   0  0  0  0  0  0  0  0  0  0  0  0
   78.0998   42.1570   41.5382 C   0  0  0  0  0  0  0  0  0  0  0  0
   77.1790   41.0464   41.3314 C   0  0  0  0  0  0  0  0  0  0  0  0
   76.9982   40.1636   42.1569 O   0  0  0  0  0  0  0  0  0  0  0  0
   76.6450   41.2102   40.0686 N   0  0  0  0  0  0  0  0  0  0  0  0
   77.1660   42.3310   39.4545 C   0  0  0  0  0  0  0  0  0  0  0  0
   76.9529   42.7539   38.3257 O   0  0  0  0  0  0  0  0  0  0  0  0
   78.0972   42.9263   40.4142 C   0  0  0  0  0  0  0  0  0  0  0  0
   78.9079   44.0363   40.2934 C   0  0  0  0  0  0  0  0  0  0  0  0
   79.7234   44.3366   41.3782 C   0  0  0  0  0  0  0  0  0  0  0  0
   79.7107   43.5538   42.5343 C   0  0  0  0  0  0  0  0  0  0  0  0
   75.6253   40.3740   39.4316 C   0  0  2  0  0  0  0  0  0  0  0  0
   74.2539   40.9531   39.7354 C   0  0  0  0  0  0  0  0  0  0  0  0
   74.0837   42.1332   39.9929 O   0  0  0  0  0  0  0  0  0  0  0  0
   73.1930   40.0881   39.6211 N   0  0  0  0  0  0  0  0  0  0  0  0
   73.2173   38.7504   39.3086 C   0  0  0  0  0  0  0  0  0  0  0  0
   72.1921   38.0982   39.1983 O   0  0  0  0  0  0  0  0  0  0  0  0
   74.5803   38.1505   39.0570 C   0  0  0  0  0  0  0  0  0  0  0  0
   75.6577   38.8992   39.8214 C   0  0  0  0  0  0  0  0  0  0  0  0
   79.5541   41.7604   44.5113 H   0  0  0  0  0  0  0  0  0  0  0  0
   78.3240   40.7824   43.7755 H   0  0  0  0  0  0  0  0  0  0  0  0
   78.8997   44.6444   39.3964 H   0  0  0  0  0  0  0  0  0  0  0  0
   80.3713   45.2051   41.3342 H   0  0  0  0  0  0  0  0  0  0  0  0
   80.3420   43.8363   43.3712 H   0  0  0  0  0  0  0  0  0  0  0  0
   75.7607   40.4734   38.3537 H   0  0  0  0  0  0  0  0  0  0  0  0
   72.2776   40.4904   39.7804 H   0  0  0  0  0  0  0  0  0  0  0  0
   74.5640   37.1026   39.3736 H   0  0  0  0  0  0  0  0  0  0  0  0
   74.7700   38.1757   37.9792 H   0  0  0  0  0  0  0  0  0  0  0  0
   75.4720   38.7723   40.8919 H   0  0  0  0  0  0  0  0  0  0  0  0
   76.6425   38.4679   39.6154 H   0  0  0  0  0  0  0  0  0  0  0  0
  1  2  1  0  0  0  0
  1 21  1  0  0  0  0
  1 22  1  0  0  0  0
  2  3  1  0  0  0  0
  2 12  2  0  0  0  0
  3  9  2  0  0  0  0
  3  4  1  0  0  0  0
  4  5  2  0  0  0  0
  4  6  1  0  0  0  0
  6  7  1  0  0  0  0
 13  6  1  0  0  0  0
  7  8  2  0  0  0  0
  7  9  1  0  0  0  0
  9 10  1  0  0  0  0
 10 23  1  0  0  0  0
 10 11  2  0  0  0  0
 11 12  1  0  0  0  0
 11 24  1  0  0  0  0
 12 25  1  0  0  0  0
 13 26  1  0  0  0  0
 13 14  1  0  0  0  0
 13 20  1  0  0  0  0
 14 15  2  0  0  0  0
 14 16  1  0  0  0  0
 16 27  1  0  0  0  0
 16 17  1  0  0  0  0
 17 18  2  0  0  0  0
 17 19  1  0  0  0  0
 19 28  1  0  0  0  0
 19 29  1  0  0  0  0
 19 20  1  0  0  0  0
 20 30  1  0  0  0  0
 20 31  1  0  0  0  0
M  ZZC   1 n1
M  ZZC   2 c1
M  ZZC   3 c2
M  ZZC   4 c3
M  ZZC   5 o1
M  ZZC   6 n2
M  ZZC   7 c4
M  ZZC   8 o2
M  ZZC   9 c5
M  ZZC  10 c6
M  ZZC  11 c7
M  ZZC  12 c8
M  ZZC  13 c9
M  ZZC  14 c10
M  ZZC  15 o3
M  ZZC  16 n3
M  ZZC  17 c11
M  ZZC  18 o4
M  ZZC  19 c12
M  ZZC  20 c13
M  ZZC  21 h11
M  ZZC  22 h12
M  ZZC  23 h61
M  ZZC  24 h71
M  ZZC  25 h81
M  ZZC  26 h91
M  ZZC  27 h31
M  ZZC  28 h121
M  ZZC  29 h122
M  ZZC  30 h131
M  ZZC  31 h132
M  ZZM   1 40
M  ZZI   1 224
M  ZZM   2 37
M  ZZI   2 124
M  ZZM   3 37
M  ZZI   3 124
M  ZZM   4 3
M  ZZI   4 121
M  ZZM   5 7
M  ZZI   5 81
M  ZZM   6 10
M  ZZI   6 192
M  ZZM   7 3
M  ZZI   7 121
M  ZZM   8 7
M  ZZI   8 81
M  ZZM   9 37
M  ZZI   9 124
M  ZZM  10 37
M  ZZI  10 125
M  ZZM  11 37
M  ZZI  11 125
M  ZZM  12 37
M  ZZI  12 125
M  ZZM  13 1
M  ZZI  13 113
M  ZZM  14 3
M  ZZI  14 121
M  ZZM  15 7
M  ZZI  15 81
M  ZZM  16 10
M  ZZI  16 191
M  ZZM  17 3
M  ZZI  17 121
M  ZZM  18 7
M  ZZI  18 81
M  ZZM  19 1
M  ZZI  19 112
M  ZZM  20 1
M  ZZI  20 112
M  ZZM  21 28
M  ZZI  21 11
M  ZZM  22 28
M  ZZI  22 11
M  ZZM  23 5
M  ZZI  23 1
M  ZZM  24 5
M  ZZI  24 1
M  ZZM  25 5
M  ZZI  25 1
M  ZZM  26 5
M  ZZI  26 1
M  ZZM  27 28
M  ZZI  27 11
M  ZZM  28 5
M  ZZI  28 1
M  ZZM  29 5
M  ZZI  29 1
M  ZZM  30 5
M  ZZI  30 1
M  ZZM  31 5
M  ZZI  31 1
M  END
> <IX>
1

> <NAME>
Cereblon_2EUF_1.pdb

> <Score>
-18.744793

> <Natom>
31

> <Nflex>
1

> <Hbond>
-3.67841

> <Hphob>
-3.561353

> <VwInt>
-24.262211

> <Dsolv>
15.013326

> <SolEl>
6.570289

> <Eintl>
1.689196

> <RecConf>
ND

> <projPath>
Cereblon_maps/

> <NAME_>
Cereblon_2EUF_1.pdb

$$$$
