Cereblon_5HZN_3.pdb
  MOLSOFT 04032206243D

 31 33  0  0  1  0  0  0  0  0999 V2000
   78.8162   41.6829   43.8090 N   0  0  0  0  0  0  0  0  0  0  0  0
   78.8977   42.4348   42.6270 C   0  0  0  0  0  0  0  0  0  0  0  0
   78.0957   42.1631   41.5316 C   0  0  0  0  0  0  0  0  0  0  0  0
   77.1754   41.0518   41.3265 C   0  0  0  0  0  0  0  0  0  0  0  0
   76.9926   40.1717   42.1545 O   0  0  0  0  0  0  0  0  0  0  0  0
   76.6407   41.2140   40.0638 N   0  0  0  0  0  0  0  0  0  0  0  0
   77.1628   42.3330   39.4475 C   0  0  0  0  0  0  0  0  0  0  0  0
   76.9520   42.7520   38.3167 O   0  0  0  0  0  0  0  0  0  0  0  0
   78.0931   42.9304   40.4062 C   0  0  0  0  0  0  0  0  0  0  0  0
   78.9058   44.0386   40.2827 C   0  0  0  0  0  0  0  0  0  0  0  0
   79.7244   44.3389   41.3652 C   0  0  0  0  0  0  0  0  0  0  0  0
   79.7117   43.5587   42.5230 C   0  0  0  0  0  0  0  0  0  0  0  0
   75.6212   40.3763   39.4285 C   0  0  2  0  0  0  0  0  0  0  0  0
   74.2502   40.9557   39.7318 C   0  0  0  0  0  0  0  0  0  0  0  0
   74.0805   42.1355   39.9910 O   0  0  0  0  0  0  0  0  0  0  0  0
   73.1889   40.0920   39.6129 N   0  0  0  0  0  0  0  0  0  0  0  0
   73.2133   38.7545   39.2995 C   0  0  0  0  0  0  0  0  0  0  0  0
   72.1878   38.1038   39.1834 O   0  0  0  0  0  0  0  0  0  0  0  0
   74.5767   38.1520   39.0564 C   0  0  0  0  0  0  0  0  0  0  0  0
   75.6535   38.9023   39.8202 C   0  0  0  0  0  0  0  0  0  0  0  0
   79.5278   41.7907   44.5289 H   0  0  0  0  0  0  0  0  0  0  0  0
   78.2846   40.8108   43.7927 H   0  0  0  0  0  0  0  0  0  0  0  0
   78.8994   44.6437   39.3838 H   0  0  0  0  0  0  0  0  0  0  0  0
   80.3763   45.2040   41.3168 H   0  0  0  0  0  0  0  0  0  0  0  0
   80.3482   43.8385   43.3569 H   0  0  0  0  0  0  0  0  0  0  0  0
   75.7560   40.4741   38.3501 H   0  0  0  0  0  0  0  0  0  0  0  0
   72.2734   40.4950   39.7699 H   0  0  0  0  0  0  0  0  0  0  0  0
   74.5581   37.1057   39.3776 H   0  0  0  0  0  0  0  0  0  0  0  0
   74.7692   38.1721   37.9792 H   0  0  0  0  0  0  0  0  0  0  0  0
   75.4674   38.7768   40.8908 H   0  0  0  0  0  0  0  0  0  0  0  0
   76.6384   38.4707   39.6144 H   0  0  0  0  0  0  0  0  0  0  0  0
  1  2  1  0  0  0  0
  1 21  1  0  0  0  0
  1 22  1  0  0  0  0
  2  3  1  0  0  0  0
  2 12  2  0  0  0  0
  3  9  2  0  0  0  0
  3  4  1  0  0  0  0
  4  5  2  0  0  0  0
  4  6  1  0  0  0  0
  6  7  1  0  0  0  0
 13  6  1  0  0  0  0
  7  8  2  0  0  0  0
  7  9  1  0  0  0  0
  9 10  1  0  0  0  0
 10 23  1  0  0  0  0
 10 11  2  0  0  0  0
 11 12  1  0  0  0  0
 11 24  1  0  0  0  0
 12 25  1  0  0  0  0
 13 26  1  0  0  0  0
 13 14  1  0  0  0  0
 13 20  1  0  0  0  0
 14 15  2  0  0  0  0
 14 16  1  0  0  0  0
 16 27  1  0  0  0  0
 16 17  1  0  0  0  0
 17 18  2  0  0  0  0
 17 19  1  0  0  0  0
 19 28  1  0  0  0  0
 19 29  1  0  0  0  0
 19 20  1  0  0  0  0
 20 30  1  0  0  0  0
 20 31  1  0  0  0  0
M  ZZC   1 n1
M  ZZC   2 c1
M  ZZC   3 c2
M  ZZC   4 c3
M  ZZC   5 o1
M  ZZC   6 n2
M  ZZC   7 c4
M  ZZC   8 o2
M  ZZC   9 c5
M  ZZC  10 c6
M  ZZC  11 c7
M  ZZC  12 c8
M  ZZC  13 c9
M  ZZC  14 c10
M  ZZC  15 o3
M  ZZC  16 n3
M  ZZC  17 c11
M  ZZC  18 o4
M  ZZC  19 c12
M  ZZC  20 c13
M  ZZC  21 h11
M  ZZC  22 h12
M  ZZC  23 h61
M  ZZC  24 h71
M  ZZC  25 h81
M  ZZC  26 h91
M  ZZC  27 h31
M  ZZC  28 h121
M  ZZC  29 h122
M  ZZC  30 h131
M  ZZC  31 h132
M  ZZM   1 40
M  ZZI   1 224
M  ZZM   2 37
M  ZZI   2 124
M  ZZM   3 37
M  ZZI   3 124
M  ZZM   4 3
M  ZZI   4 121
M  ZZM   5 7
M  ZZI   5 81
M  ZZM   6 10
M  ZZI   6 192
M  ZZM   7 3
M  ZZI   7 121
M  ZZM   8 7
M  ZZI   8 81
M  ZZM   9 37
M  ZZI   9 124
M  ZZM  10 37
M  ZZI  10 125
M  ZZM  11 37
M  ZZI  11 125
M  ZZM  12 37
M  ZZI  12 125
M  ZZM  13 1
M  ZZI  13 113
M  ZZM  14 3
M  ZZI  14 121
M  ZZM  15 7
M  ZZI  15 81
M  ZZM  16 10
M  ZZI  16 191
M  ZZM  17 3
M  ZZI  17 121
M  ZZM  18 7
M  ZZI  18 81
M  ZZM  19 1
M  ZZI  19 112
M  ZZM  20 1
M  ZZI  20 112
M  ZZM  21 28
M  ZZI  21 11
M  ZZM  22 28
M  ZZI  22 11
M  ZZM  23 5
M  ZZI  23 1
M  ZZM  24 5
M  ZZI  24 1
M  ZZM  25 5
M  ZZI  25 1
M  ZZM  26 5
M  ZZI  26 1
M  ZZM  27 28
M  ZZI  27 11
M  ZZM  28 5
M  ZZI  28 1
M  ZZM  29 5
M  ZZI  29 1
M  ZZM  30 5
M  ZZI  30 1
M  ZZM  31 5
M  ZZI  31 1
M  END
> <IX>
1

> <NAME>
Cereblon_5HZN_3.pdb

> <Score>
-18.780028

> <Natom>
31

> <Nflex>
1

> <Hbond>
-3.681965

> <Hphob>
-3.547462

> <VwInt>
-24.229533

> <Dsolv>
15.069337

> <SolEl>
6.410682

> <Eintl>
1.681037

> <RecConf>
ND

> <projPath>
Cereblon_maps/

> <NAME_>
Cereblon_5HZN_3.pdb

$$$$
