Cereblon_5MO4_4.pdb
  MOLSOFT 04032206263D

 31 33  0  0  1  0  0  0  0  0999 V2000
   77.5000   42.0185   41.5313 N   0  0  0  0  0  0  0  0  0  0  0  0
   77.0984   40.7025   41.2473 C   0  0  0  0  0  0  0  0  0  0  0  0
   76.1209   40.3885   40.3087 C   0  0  0  0  0  0  0  0  0  0  0  0
   75.2198   41.2528   39.5404 C   0  0  0  0  0  0  0  0  0  0  0  0
   75.1568   42.4631   39.6927 O   0  0  0  0  0  0  0  0  0  0  0  0
   74.4695   40.4261   38.7273 N   0  0  0  0  0  0  0  0  0  0  0  0
   74.7751   39.1038   38.9701 C   0  0  0  0  0  0  0  0  0  0  0  0
   74.2956   38.0934   38.4759 O   0  0  0  0  0  0  0  0  0  0  0  0
   75.8322   39.0981   39.9758 C   0  0  0  0  0  0  0  0  0  0  0  0
   76.4811   38.0191   40.5455 C   0  0  0  0  0  0  0  0  0  0  0  0
   77.4528   38.3056   41.4938 C   0  0  0  0  0  0  0  0  0  0  0  0
   77.7540   39.6235   41.8338 C   0  0  0  0  0  0  0  0  0  0  0  0
   73.4177   40.8377   37.7856 C   0  0  1  0  0  0  0  0  0  0  0  0
   72.1026   41.0459   38.5264 C   0  0  0  0  0  0  0  0  0  0  0  0
   71.8337   40.5017   39.5877 O   0  0  0  0  0  0  0  0  0  0  0  0
   71.1803   41.8415   37.8856 N   0  0  0  0  0  0  0  0  0  0  0  0
   71.3136   42.5493   36.7145 C   0  0  0  0  0  0  0  0  0  0  0  0
   70.4211   43.2660   36.2861 O   0  0  0  0  0  0  0  0  0  0  0  0
   72.6285   42.3823   35.9921 C   0  0  0  0  0  0  0  0  0  0  0  0
   73.7562   42.0805   36.9649 C   0  0  0  0  0  0  0  0  0  0  0  0
   78.0853   42.1980   42.3445 H   0  0  0  0  0  0  0  0  0  0  0  0
   76.9788   42.8026   41.1380 H   0  0  0  0  0  0  0  0  0  0  0  0
   76.2417   36.9968   40.2682 H   0  0  0  0  0  0  0  0  0  0  0  0
   77.9907   37.4937   41.9737 H   0  0  0  0  0  0  0  0  0  0  0  0
   78.5251   39.8077   42.5751 H   0  0  0  0  0  0  0  0  0  0  0  0
   73.2460   39.9979   37.1021 H   0  0  0  0  0  0  0  0  0  0  0  0
   70.3038   41.9689   38.3711 H   0  0  0  0  0  0  0  0  0  0  0  0
   72.5181   41.5782   35.2569 H   0  0  0  0  0  0  0  0  0  0  0  0
   72.8440   43.3089   35.4526 H   0  0  0  0  0  0  0  0  0  0  0  0
   73.9051   42.9481   37.6126 H   0  0  0  0  0  0  0  0  0  0  0  0
   74.6909   41.9360   36.4174 H   0  0  0  0  0  0  0  0  0  0  0  0
  1  2  1  0  0  0  0
  1 21  1  0  0  0  0
  1 22  1  0  0  0  0
  2  3  1  0  0  0  0
  2 12  2  0  0  0  0
  3  9  2  0  0  0  0
  3  4  1  0  0  0  0
  4  5  2  0  0  0  0
  4  6  1  0  0  0  0
  6  7  1  0  0  0  0
 13  6  1  0  0  0  0
  7  8  2  0  0  0  0
  7  9  1  0  0  0  0
  9 10  1  0  0  0  0
 10 23  1  0  0  0  0
 10 11  2  0  0  0  0
 11 12  1  0  0  0  0
 11 24  1  0  0  0  0
 12 25  1  0  0  0  0
 13 26  1  0  0  0  0
 13 14  1  0  0  0  0
 13 20  1  0  0  0  0
 14 15  2  0  0  0  0
 14 16  1  0  0  0  0
 16 27  1  0  0  0  0
 16 17  1  0  0  0  0
 17 18  2  0  0  0  0
 17 19  1  0  0  0  0
 19 28  1  0  0  0  0
 19 29  1  0  0  0  0
 19 20  1  0  0  0  0
 20 30  1  0  0  0  0
 20 31  1  0  0  0  0
M  ZZC   1 n1
M  ZZC   2 c1
M  ZZC   3 c2
M  ZZC   4 c3
M  ZZC   5 o1
M  ZZC   6 n2
M  ZZC   7 c4
M  ZZC   8 o2
M  ZZC   9 c5
M  ZZC  10 c6
M  ZZC  11 c7
M  ZZC  12 c8
M  ZZC  13 c9
M  ZZC  14 c10
M  ZZC  15 o3
M  ZZC  16 n3
M  ZZC  17 c11
M  ZZC  18 o4
M  ZZC  19 c12
M  ZZC  20 c13
M  ZZC  21 h11
M  ZZC  22 h12
M  ZZC  23 h61
M  ZZC  24 h71
M  ZZC  25 h81
M  ZZC  26 h91
M  ZZC  27 h31
M  ZZC  28 h121
M  ZZC  29 h122
M  ZZC  30 h131
M  ZZC  31 h132
M  ZZM   1 40
M  ZZI   1 224
M  ZZM   2 37
M  ZZI   2 124
M  ZZM   3 37
M  ZZI   3 124
M  ZZM   4 3
M  ZZI   4 121
M  ZZM   5 7
M  ZZI   5 81
M  ZZM   6 10
M  ZZI   6 192
M  ZZM   7 3
M  ZZI   7 121
M  ZZM   8 7
M  ZZI   8 81
M  ZZM   9 37
M  ZZI   9 124
M  ZZM  10 37
M  ZZI  10 125
M  ZZM  11 37
M  ZZI  11 125
M  ZZM  12 37
M  ZZI  12 125
M  ZZM  13 1
M  ZZI  13 113
M  ZZM  14 3
M  ZZI  14 121
M  ZZM  15 7
M  ZZI  15 81
M  ZZM  16 10
M  ZZI  16 191
M  ZZM  17 3
M  ZZI  17 121
M  ZZM  18 7
M  ZZI  18 81
M  ZZM  19 1
M  ZZI  19 112
M  ZZM  20 1
M  ZZI  20 112
M  ZZM  21 28
M  ZZI  21 11
M  ZZM  22 28
M  ZZI  22 11
M  ZZM  23 5
M  ZZI  23 1
M  ZZM  24 5
M  ZZI  24 1
M  ZZM  25 5
M  ZZI  25 1
M  ZZM  26 5
M  ZZI  26 1
M  ZZM  27 28
M  ZZI  27 11
M  ZZM  28 5
M  ZZI  28 1
M  ZZM  29 5
M  ZZI  29 1
M  ZZM  30 5
M  ZZI  30 1
M  ZZM  31 5
M  ZZI  31 1
M  END
> <IX>
1

> <NAME>
Cereblon_5MO4_4.pdb

> <Score>
-16.266824

> <Natom>
31

> <Nflex>
1

> <Hbond>
-3.479363

> <Hphob>
-3.609923

> <VwInt>
-24.19399

> <Dsolv>
16.749382

> <SolEl>
8.476553

> <Eintl>
0.653402

> <RecConf>
ND

> <projPath>
Cereblon_maps/

> <NAME_>
Cereblon_5MO4_4.pdb

$$$$
