Cereblon_3UE4_9.pdb
  MOLSOFT 04032206223D

 29 31  0  0  1  0  0  0  0  0999 V2000
   76.8125   38.1095   40.6555 C   0  0  0  0  0  0  0  0  0  0  0  0
   76.0721   39.1391   40.1048 C   0  0  0  0  0  0  0  0  0  0  0  0
   75.0713   39.1061   39.0372 C   0  0  0  0  0  0  0  0  0  0  0  0
   74.6698   38.0825   38.5033 O   0  0  0  0  0  0  0  0  0  0  0  0
   74.6791   40.4111   38.8321 N   0  0  0  0  0  0  0  0  0  0  0  0
   75.2564   41.2407   39.7677 C   0  0  0  0  0  0  0  0  0  0  0  0
   75.0363   42.4244   39.9620 O   0  0  0  0  0  0  0  0  0  0  0  0
   76.1856   40.4235   40.5419 C   0  0  0  0  0  0  0  0  0  0  0  0
   77.0492   40.7838   41.5607 C   0  0  0  0  0  0  0  0  0  0  0  0
   77.7970   39.7629   42.1338 C   0  0  0  0  0  0  0  0  0  0  0  0
   77.6823   38.4460   41.6871 C   0  0  0  0  0  0  0  0  0  0  0  0
   73.6350   40.8173   37.8876 C   0  0  2  0  0  0  0  0  0  0  0  0
   74.0587   42.0556   37.0987 C   0  0  0  0  0  0  0  0  0  0  0  0
   75.2260   42.3342   36.8632 O   0  0  0  0  0  0  0  0  0  0  0  0
   73.0335   42.8265   36.6007 N   0  0  0  0  0  0  0  0  0  0  0  0
   71.6784   42.6682   36.7697 C   0  0  0  0  0  0  0  0  0  0  0  0
   70.8722   43.4518   36.2913 O   0  0  0  0  0  0  0  0  0  0  0  0
   71.2509   41.4416   37.5390 C   0  0  0  0  0  0  0  0  0  0  0  0
   72.2917   41.0392   38.5720 C   0  0  0  0  0  0  0  0  0  0  0  0
   76.7164   37.0862   40.3030 H   0  0  0  0  0  0  0  0  0  0  0  0
   77.1463   41.8108   41.8977 H   0  0  0  0  0  0  0  0  0  0  0  0
   78.4786   39.9938   42.9475 H   0  0  0  0  0  0  0  0  0  0  0  0
   78.2818   37.6717   42.1564 H   0  0  0  0  0  0  0  0  0  0  0  0
   73.5212   40.0089   37.1564 H   0  0  0  0  0  0  0  0  0  0  0  0
   73.3119   43.6432   36.0742 H   0  0  0  0  0  0  0  0  0  0  0  0
   70.3009   41.6589   38.0358 H   0  0  0  0  0  0  0  0  0  0  0  0
   71.0793   40.6325   36.8218 H   0  0  0  0  0  0  0  0  0  0  0  0
   71.9705   40.1259   39.0840 H   0  0  0  0  0  0  0  0  0  0  0  0
   72.3759   41.8100   39.3447 H   0  0  0  0  0  0  0  0  0  0  0  0
  1 20  1  0  0  0  0
  1  2  1  0  0  0  0
  1 11  2  0  0  0  0
  2  3  1  0  0  0  0
  2  8  2  0  0  0  0
  3  4  2  0  0  0  0
  3  5  1  0  0  0  0
  5  6  1  0  0  0  0
 12  5  1  0  0  0  0
  6  7  2  0  0  0  0
  6  8  1  0  0  0  0
  8  9  1  0  0  0  0
  9 21  1  0  0  0  0
  9 10  2  0  0  0  0
 10 22  1  0  0  0  0
 10 11  1  0  0  0  0
 11 23  1  0  0  0  0
 12 24  1  0  0  0  0
 12 13  1  0  0  0  0
 12 19  1  0  0  0  0
 13 14  2  0  0  0  0
 13 15  1  0  0  0  0
 15 25  1  0  0  0  0
 15 16  1  0  0  0  0
 16 17  2  0  0  0  0
 16 18  1  0  0  0  0
 18 26  1  0  0  0  0
 18 27  1  0  0  0  0
 18 19  1  0  0  0  0
 19 28  1  0  0  0  0
 19 29  1  0  0  0  0
M  ZZC   1 c1
M  ZZC   2 c2
M  ZZC   3 c3
M  ZZC   4 o1
M  ZZC   5 n1
M  ZZC   6 c4
M  ZZC   7 o2
M  ZZC   8 c5
M  ZZC   9 c6
M  ZZC  10 c7
M  ZZC  11 c8
M  ZZC  12 c9
M  ZZC  13 c10
M  ZZC  14 o3
M  ZZC  15 n2
M  ZZC  16 c11
M  ZZC  17 o4
M  ZZC  18 c12
M  ZZC  19 c13
M  ZZC  20 h11
M  ZZC  21 h61
M  ZZC  22 h71
M  ZZC  23 h81
M  ZZC  24 h91
M  ZZC  25 h21
M  ZZC  26 h121
M  ZZC  27 h122
M  ZZC  28 h131
M  ZZC  29 h132
M  ZZM   1 37
M  ZZI   1 125
M  ZZM   2 37
M  ZZI   2 124
M  ZZM   3 3
M  ZZI   3 121
M  ZZM   4 7
M  ZZI   4 81
M  ZZM   5 10
M  ZZI   5 192
M  ZZM   6 3
M  ZZI   6 121
M  ZZM   7 7
M  ZZI   7 81
M  ZZM   8 37
M  ZZI   8 124
M  ZZM   9 37
M  ZZI   9 125
M  ZZM  10 37
M  ZZI  10 125
M  ZZM  11 37
M  ZZI  11 125
M  ZZM  12 1
M  ZZI  12 113
M  ZZM  13 3
M  ZZI  13 121
M  ZZM  14 7
M  ZZI  14 81
M  ZZM  15 10
M  ZZI  15 191
M  ZZM  16 3
M  ZZI  16 121
M  ZZM  17 7
M  ZZI  17 81
M  ZZM  18 1
M  ZZI  18 112
M  ZZM  19 1
M  ZZI  19 112
M  ZZM  20 5
M  ZZI  20 1
M  ZZM  21 5
M  ZZI  21 1
M  ZZM  22 5
M  ZZI  22 1
M  ZZM  23 5
M  ZZI  23 1
M  ZZM  24 5
M  ZZI  24 1
M  ZZM  25 28
M  ZZI  25 11
M  ZZM  26 5
M  ZZI  26 1
M  ZZM  27 5
M  ZZI  27 1
M  ZZM  28 5
M  ZZI  28 1
M  ZZM  29 5
M  ZZI  29 1
M  END
> <IX>
1

> <NAME>
Cereblon_3UE4_9.pdb

> <Score>
-17.815791

> <Natom>
29

> <Nflex>
1

> <Hbond>
-4.523039

> <Hphob>
-3.555249

> <VwInt>
-21.574171

> <Dsolv>
14.614247

> <SolEl>
7.047522

> <Eintl>
2.286059

> <RecConf>
ND

> <projPath>
Cereblon_maps/

> <NAME_>
Cereblon_3UE4_9.pdb

$$$$
