Cereblon_5P9J_10.pdb
  MOLSOFT 04032206263D

 36 38  0  0  1  0  0  0  0  0999 V2000
   76.6279   42.3272   38.0180 O   0  0  0  0  0  0  0  0  0  0  0  0
   76.9679   42.3182   39.1932 C   0  0  0  0  0  0  0  0  0  0  0  0
   76.7652   41.2880   40.1000 N   0  0  0  0  0  0  0  0  0  0  0  0
   76.0061   40.1232   39.8360 C   0  0  0  0  0  0  0  0  0  0  0  0
   74.8849   40.0655   39.0106 C   0  0  0  0  0  0  0  0  0  0  0  0
   74.0188   41.1158   38.4682 C   0  0  0  0  0  0  0  0  0  0  0  0
   74.0305   42.2713   38.8680 O   0  0  0  0  0  0  0  0  0  0  0  0
   73.1571   40.4937   37.5812 N   0  0  0  0  0  0  0  0  0  0  0  0
   73.2793   39.1242   37.6744 C   0  0  0  0  0  0  0  0  0  0  0  0
   72.6489   38.2454   37.1042 O   0  0  0  0  0  0  0  0  0  0  0  0
   74.3505   38.8694   38.6333 C   0  0  0  0  0  0  0  0  0  0  0  0
   74.8069   37.6600   39.1216 C   0  0  0  0  0  0  0  0  0  0  0  0
   75.8466   37.7081   40.0417 C   0  0  0  0  0  0  0  0  0  0  0  0
   76.4365   38.9211   40.3949 C   0  0  0  0  0  0  0  0  0  0  0  0
   72.1348   41.1324   36.7408 C   0  0  1  0  0  0  0  0  0  0  0  0
   70.8022   41.2163   37.4841 C   0  0  0  0  0  0  0  0  0  0  0  0
   70.4073   40.3765   38.2786 O   0  0  0  0  0  0  0  0  0  0  0  0
   69.9727   42.2449   37.1214 N   0  0  0  0  0  0  0  0  0  0  0  0
   70.1650   43.2058   36.1725 C   0  0  0  0  0  0  0  0  0  0  0  0
   69.3277   44.0736   35.9984 O   0  0  0  0  0  0  0  0  0  0  0  0
   71.4250   43.0938   35.3578 C   0  0  0  0  0  0  0  0  0  0  0  0
   72.5495   42.4945   36.1830 C   0  0  0  0  0  0  0  0  0  0  0  0
   77.7475   43.4538   39.7920 C   0  0  0  0  0  0  0  0  0  0  0  0
   77.3985   41.2525   40.8910 H   0  0  0  0  0  0  0  0  0  0  0  0
   74.3658   36.7172   38.8093 H   0  0  0  0  0  0  0  0  0  0  0  0
   76.2283   36.7841   40.4655 H   0  0  0  0  0  0  0  0  0  0  0  0
   77.2850   38.9101   41.0725 H   0  0  0  0  0  0  0  0  0  0  0  0
   71.9510   40.4576   35.8964 H   0  0  0  0  0  0  0  0  0  0  0  0
   69.0846   42.2960   37.6022 H   0  0  0  0  0  0  0  0  0  0  0  0
   71.2145   42.4841   34.4728 H   0  0  0  0  0  0  0  0  0  0  0  0
   71.7002   44.0985   35.0293 H   0  0  0  0  0  0  0  0  0  0  0  0
   73.4503   42.3912   35.5695 H   0  0  0  0  0  0  0  0  0  0  0  0
   72.7983   43.1959   36.9831 H   0  0  0  0  0  0  0  0  0  0  0  0
   77.8554   44.2345   39.0429 H   0  0  0  0  0  0  0  0  0  0  0  0
   78.7404   43.1093   40.0948 H   0  0  0  0  0  0  0  0  0  0  0  0
   77.2276   43.8660   40.6618 H   0  0  0  0  0  0  0  0  0  0  0  0
  1  2  2  0  0  0  0
  2  3  1  0  0  0  0
  2 23  1  0  0  0  0
  3  4  1  0  0  0  0
  3 24  1  0  0  0  0
  4  5  1  0  0  0  0
  4 14  2  0  0  0  0
  5 11  2  0  0  0  0
  5  6  1  0  0  0  0
  6  7  2  0  0  0  0
  6  8  1  0  0  0  0
  8  9  1  0  0  0  0
 15  8  1  0  0  0  0
  9 10  2  0  0  0  0
  9 11  1  0  0  0  0
 11 12  1  0  0  0  0
 12 25  1  0  0  0  0
 12 13  2  0  0  0  0
 13 14  1  0  0  0  0
 13 26  1  0  0  0  0
 14 27  1  0  0  0  0
 15 28  1  0  0  0  0
 15 16  1  0  0  0  0
 15 22  1  0  0  0  0
 16 17  2  0  0  0  0
 16 18  1  0  0  0  0
 18 29  1  0  0  0  0
 18 19  1  0  0  0  0
 19 20  2  0  0  0  0
 19 21  1  0  0  0  0
 21 30  1  0  0  0  0
 21 31  1  0  0  0  0
 21 22  1  0  0  0  0
 22 32  1  0  0  0  0
 22 33  1  0  0  0  0
 23 34  1  0  0  0  0
 23 35  1  0  0  0  0
 23 36  1  0  0  0  0
M  ZZC   1 o1
M  ZZC   2 c1
M  ZZC   3 n1
M  ZZC   4 c2
M  ZZC   5 c3
M  ZZC   6 c4
M  ZZC   7 o2
M  ZZC   8 n2
M  ZZC   9 c5
M  ZZC  10 o3
M  ZZC  11 c6
M  ZZC  12 c7
M  ZZC  13 c8
M  ZZC  14 c9
M  ZZC  15 c10
M  ZZC  16 c11
M  ZZC  17 o4
M  ZZC  18 n3
M  ZZC  19 c12
M  ZZC  20 o5
M  ZZC  21 c13
M  ZZC  22 c14
M  ZZC  23 c15
M  ZZC  24 h11
M  ZZC  25 h71
M  ZZC  26 h81
M  ZZC  27 h91
M  ZZC  28 h101
M  ZZC  29 h31
M  ZZC  30 h131
M  ZZC  31 h132
M  ZZC  32 h141
M  ZZC  33 h142
M  ZZC  34 h151
M  ZZC  35 h152
M  ZZC  36 h153
M  ZZM   1 7
M  ZZI   1 81
M  ZZM   2 3
M  ZZI   2 121
M  ZZM   3 10
M  ZZI   3 191
M  ZZM   4 37
M  ZZI   4 124
M  ZZM   5 37
M  ZZI   5 124
M  ZZM   6 3
M  ZZI   6 121
M  ZZM   7 7
M  ZZI   7 81
M  ZZM   8 10
M  ZZI   8 192
M  ZZM   9 3
M  ZZI   9 121
M  ZZM  10 7
M  ZZI  10 81
M  ZZM  11 37
M  ZZI  11 124
M  ZZM  12 37
M  ZZI  12 125
M  ZZM  13 37
M  ZZI  13 125
M  ZZM  14 37
M  ZZI  14 125
M  ZZM  15 1
M  ZZI  15 113
M  ZZM  16 3
M  ZZI  16 121
M  ZZM  17 7
M  ZZI  17 81
M  ZZM  18 10
M  ZZI  18 191
M  ZZM  19 3
M  ZZI  19 121
M  ZZM  20 7
M  ZZI  20 81
M  ZZM  21 1
M  ZZI  21 112
M  ZZM  22 1
M  ZZI  22 112
M  ZZM  23 1
M  ZZI  23 111
M  ZZM  24 28
M  ZZI  24 11
M  ZZM  25 5
M  ZZI  25 1
M  ZZM  26 5
M  ZZI  26 1
M  ZZM  27 5
M  ZZI  27 1
M  ZZM  28 5
M  ZZI  28 1
M  ZZM  29 28
M  ZZI  29 11
M  ZZM  30 5
M  ZZI  30 1
M  ZZM  31 5
M  ZZI  31 1
M  ZZM  32 5
M  ZZI  32 1
M  ZZM  33 5
M  ZZI  33 1
M  ZZM  34 5
M  ZZI  34 1
M  ZZM  35 5
M  ZZI  35 1
M  ZZM  36 5
M  ZZI  36 1
M  END
> <IX>
1

> <NAME>
Cereblon_5P9J_10.pdb

> <Score>
-21.162865

> <Natom>
36

> <Nflex>
1

> <Hbond>
-7.410765

> <Hphob>
-4.085557

> <VwInt>
-25.8603

> <Dsolv>
15.400715

> <SolEl>
9.950157

> <Eintl>
12.443924

> <RecConf>
ND

> <projPath>
Cereblon_maps/

> <NAME_>
Cereblon_5P9J_10.pdb

$$$$
