Cereblon_5E80_2.pdb
  MOLSOFT 04032206243D

 31 33  0  0  1  0  0  0  0  0999 V2000
   78.7264   41.7076   43.8896 N   0  0  0  0  0  0  0  0  0  0  0  0
   78.7968   42.4835   42.7210 C   0  0  0  0  0  0  0  0  0  0  0  0
   78.0700   42.1671   41.5853 C   0  0  0  0  0  0  0  0  0  0  0  0
   77.1595   41.0510   41.3640 C   0  0  0  0  0  0  0  0  0  0  0  0
   76.9589   40.1777   42.1947 O   0  0  0  0  0  0  0  0  0  0  0  0
   76.6495   41.2075   40.0903 N   0  0  0  0  0  0  0  0  0  0  0  0
   77.1898   42.3194   39.4764 C   0  0  0  0  0  0  0  0  0  0  0  0
   76.9955   42.7350   38.3415 O   0  0  0  0  0  0  0  0  0  0  0  0
   78.1044   42.9180   40.4497 C   0  0  0  0  0  0  0  0  0  0  0  0
   78.9232   44.0232   40.3365 C   0  0  0  0  0  0  0  0  0  0  0  0
   79.7128   44.3318   41.4379 C   0  0  0  0  0  0  0  0  0  0  0  0
   79.6520   43.5758   42.6106 C   0  0  0  0  0  0  0  0  0  0  0  0
   75.6390   40.3694   39.4409 C   0  0  2  0  0  0  0  0  0  0  0  0
   74.2663   40.9573   39.7220 C   0  0  0  0  0  0  0  0  0  0  0  0
   74.0991   42.1383   39.9776 O   0  0  0  0  0  0  0  0  0  0  0  0
   73.2023   40.0994   39.5913 N   0  0  0  0  0  0  0  0  0  0  0  0
   73.2231   38.7605   39.2858 C   0  0  0  0  0  0  0  0  0  0  0  0
   72.1952   38.1154   39.1595 O   0  0  0  0  0  0  0  0  0  0  0  0
   74.5856   38.1478   39.0646 C   0  0  0  0  0  0  0  0  0  0  0  0
   75.6594   38.8954   39.8351 C   0  0  0  0  0  0  0  0  0  0  0  0
   78.9719   42.1268   44.7856 H   0  0  0  0  0  0  0  0  0  0  0  0
   78.0886   40.9098   43.8997 H   0  0  0  0  0  0  0  0  0  0  0  0
   78.9465   44.6153   39.4293 H   0  0  0  0  0  0  0  0  0  0  0  0
   80.3831   45.1829   41.3904 H   0  0  0  0  0  0  0  0  0  0  0  0
   80.2820   43.8499   43.4514 H   0  0  0  0  0  0  0  0  0  0  0  0
   75.7910   40.4644   38.3643 H   0  0  0  0  0  0  0  0  0  0  0  0
   72.2867   40.5084   39.7336 H   0  0  0  0  0  0  0  0  0  0  0  0
   74.5564   37.1038   39.3923 H   0  0  0  0  0  0  0  0  0  0  0  0
   74.7894   38.1592   37.9895 H   0  0  0  0  0  0  0  0  0  0  0  0
   75.4636   38.7760   40.9045 H   0  0  0  0  0  0  0  0  0  0  0  0
   76.6437   38.4580   39.6388 H   0  0  0  0  0  0  0  0  0  0  0  0
  1  2  1  0  0  0  0
  1 21  1  0  0  0  0
  1 22  1  0  0  0  0
  2  3  1  0  0  0  0
  2 12  2  0  0  0  0
  3  9  2  0  0  0  0
  3  4  1  0  0  0  0
  4  5  2  0  0  0  0
  4  6  1  0  0  0  0
  6  7  1  0  0  0  0
 13  6  1  0  0  0  0
  7  8  2  0  0  0  0
  7  9  1  0  0  0  0
  9 10  1  0  0  0  0
 10 23  1  0  0  0  0
 10 11  2  0  0  0  0
 11 12  1  0  0  0  0
 11 24  1  0  0  0  0
 12 25  1  0  0  0  0
 13 26  1  0  0  0  0
 13 14  1  0  0  0  0
 13 20  1  0  0  0  0
 14 15  2  0  0  0  0
 14 16  1  0  0  0  0
 16 27  1  0  0  0  0
 16 17  1  0  0  0  0
 17 18  2  0  0  0  0
 17 19  1  0  0  0  0
 19 28  1  0  0  0  0
 19 29  1  0  0  0  0
 19 20  1  0  0  0  0
 20 30  1  0  0  0  0
 20 31  1  0  0  0  0
M  ZZC   1 n1
M  ZZC   2 c1
M  ZZC   3 c2
M  ZZC   4 c3
M  ZZC   5 o1
M  ZZC   6 n2
M  ZZC   7 c4
M  ZZC   8 o2
M  ZZC   9 c5
M  ZZC  10 c6
M  ZZC  11 c7
M  ZZC  12 c8
M  ZZC  13 c9
M  ZZC  14 c10
M  ZZC  15 o3
M  ZZC  16 n3
M  ZZC  17 c11
M  ZZC  18 o4
M  ZZC  19 c12
M  ZZC  20 c13
M  ZZC  21 h11
M  ZZC  22 h12
M  ZZC  23 h61
M  ZZC  24 h71
M  ZZC  25 h81
M  ZZC  26 h91
M  ZZC  27 h31
M  ZZC  28 h121
M  ZZC  29 h122
M  ZZC  30 h131
M  ZZC  31 h132
M  ZZM   1 40
M  ZZI   1 224
M  ZZM   2 37
M  ZZI   2 124
M  ZZM   3 37
M  ZZI   3 124
M  ZZM   4 3
M  ZZI   4 121
M  ZZM   5 7
M  ZZI   5 81
M  ZZM   6 10
M  ZZI   6 192
M  ZZM   7 3
M  ZZI   7 121
M  ZZM   8 7
M  ZZI   8 81
M  ZZM   9 37
M  ZZI   9 124
M  ZZM  10 37
M  ZZI  10 125
M  ZZM  11 37
M  ZZI  11 125
M  ZZM  12 37
M  ZZI  12 125
M  ZZM  13 1
M  ZZI  13 113
M  ZZM  14 3
M  ZZI  14 121
M  ZZM  15 7
M  ZZI  15 81
M  ZZM  16 10
M  ZZI  16 191
M  ZZM  17 3
M  ZZI  17 121
M  ZZM  18 7
M  ZZI  18 81
M  ZZM  19 1
M  ZZI  19 112
M  ZZM  20 1
M  ZZI  20 112
M  ZZM  21 28
M  ZZI  21 11
M  ZZM  22 28
M  ZZI  22 11
M  ZZM  23 5
M  ZZI  23 1
M  ZZM  24 5
M  ZZI  24 1
M  ZZM  25 5
M  ZZI  25 1
M  ZZM  26 5
M  ZZI  26 1
M  ZZM  27 28
M  ZZI  27 11
M  ZZM  28 5
M  ZZI  28 1
M  ZZM  29 5
M  ZZI  29 1
M  ZZM  30 5
M  ZZI  30 1
M  ZZM  31 5
M  ZZI  31 1
M  END
> <IX>
1

> <NAME>
Cereblon_5E80_2.pdb

> <Score>
-21.774244

> <Natom>
31

> <Nflex>
1

> <Hbond>
-4.907673

> <Hphob>
-3.569544

> <VwInt>
-24.044069

> <Dsolv>
15.197511

> <SolEl>
5.82724

> <Eintl>
2.056203

> <RecConf>
ND

> <projPath>
Cereblon_maps/

> <NAME_>
Cereblon_5E80_2.pdb

$$$$
