Cereblon_5VBP_3.pdb
  MOLSOFT 04032206283D

 30 32  0  0  0  0  0  0  0  0999 V2000
   76.7616   42.6497   39.0664 N   0  0  0  0  0  0  0  0  0  0  0  0
   76.2968   41.3870   39.4699 C   0  0  0  0  0  0  0  0  0  0  0  0
   75.0957   40.8407   39.0075 C   0  0  0  0  0  0  0  0  0  0  0  0
   74.2839   41.4974   37.9729 C   0  0  0  0  0  0  0  0  0  0  0  0
   74.8250   42.3639   37.2951 O   0  0  0  0  0  0  0  0  0  0  0  0
   72.9597   41.0588   37.9075 N   0  0  0  0  0  0  0  0  0  0  0  0
   71.9217   41.7463   37.2606 C   0  0  0  0  0  0  0  0  0  0  0  0
   70.6263   41.3912   37.4202 C   0  0  0  0  0  0  0  0  0  0  0  0
   70.0487   40.4661   38.0295 O   0  5  0  0  0  0  0  0  0  0  0  0
   69.6495   42.1497   36.8629 N   0  0  0  0  0  0  0  0  0  0  0  0
   69.7662   43.3342   36.2083 C   0  0  0  0  0  0  0  0  0  0  0  0
   68.7778   43.9323   35.8158 O   0  0  0  0  0  0  0  0  0  0  0  0
   71.1453   43.9175   36.1282 C   0  0  0  0  0  0  0  0  0  0  0  0
   72.2648   42.9211   36.3718 C   0  0  0  0  0  0  0  0  0  0  0  0
   72.5703   39.8707   38.4953 N   0  0  0  0  0  0  0  0  0  0  0  0
   73.3686   39.1290   39.1242 N   0  0  0  0  0  0  0  0  0  0  0  0
   74.6044   39.6550   39.5007 C   0  0  0  0  0  0  0  0  0  0  0  0
   75.3557   38.9519   40.4264 C   0  0  0  0  0  0  0  0  0  0  0  0
   76.5314   39.4789   40.9212 C   0  0  0  0  0  0  0  0  0  0  0  0
   76.9733   40.7071   40.4712 C   0  0  0  0  0  0  0  0  0  0  0  0
   77.7376   42.8730   39.2497 H   0  0  0  0  0  0  0  0  0  0  0  0
   76.3152   43.0839   38.2575 H   0  0  0  0  0  0  0  0  0  0  0  0
   68.7093   41.8018   37.0105 H   0  0  0  0  0  0  0  0  0  0  0  0
   71.2688   44.3805   35.1448 H   0  0  0  0  0  0  0  0  0  0  0  0
   71.1990   44.7207   36.8682 H   0  0  0  0  0  0  0  0  0  0  0  0
   73.0806   43.5152   36.7852 H   0  0  0  0  0  0  0  0  0  0  0  0
   72.6180   42.5326   35.4105 H   0  0  0  0  0  0  0  0  0  0  0  0
   74.9970   37.9984   40.8014 H   0  0  0  0  0  0  0  0  0  0  0  0
   77.0939   38.9453   41.6815 H   0  0  0  0  0  0  0  0  0  0  0  0
   77.8686   41.1357   40.9085 H   0  0  0  0  0  0  0  0  0  0  0  0
  1  2  1  0  0  0  0
  1 21  1  0  0  0  0
  1 22  1  0  0  0  0
  2  3  1  0  0  0  0
  2 20  2  0  0  0  0
  3  4  1  0  0  0  0
  3 17  2  0  0  0  0
  4  6  1  0  0  0  0
  4  5  2  0  0  0  0
  6  7  1  0  0  0  0
  6 15  1  0  0  0  0
  7  8  2  0  0  0  0
  7 14  1  0  0  0  0
  8  9  1  0  0  0  0
  8 10  1  0  0  0  0
 10 11  1  0  0  0  0
 10 23  1  0  0  0  0
 11 13  1  0  0  0  0
 11 12  2  0  0  0  0
 13 14  1  0  0  0  0
 13 24  1  0  0  0  0
 13 25  1  0  0  0  0
 14 26  1  0  0  0  0
 14 27  1  0  0  0  0
 15 16  2  0  0  0  0
 16 17  1  0  0  0  0
 17 18  1  0  0  0  0
 18 19  2  0  0  0  0
 18 28  1  0  0  0  0
 19 20  1  0  0  0  0
 19 29  1  0  0  0  0
 20 30  1  0  0  0  0
M  ZZC   1 n1
M  ZZC   2 c1
M  ZZC   3 c2
M  ZZC   4 c3
M  ZZC   5 o1
M  ZZC   6 n2
M  ZZC   7 c4
M  ZZC   8 c5
M  ZZC   9 o2
M  ZZC  10 n3
M  ZZC  11 c6
M  ZZC  12 o3
M  ZZC  13 c7
M  ZZC  14 c8
M  ZZC  15 n4
M  ZZC  16 n5
M  ZZC  17 c9
M  ZZC  18 c10
M  ZZC  19 c11
M  ZZC  20 c12
M  ZZC  21 h11
M  ZZC  22 h12
M  ZZC  23 h31
M  ZZC  24 h71
M  ZZC  25 h72
M  ZZC  26 h81
M  ZZC  27 h82
M  ZZC  28 h101
M  ZZC  29 h111
M  ZZC  30 h121
M  ZZM   1 40
M  ZZI   1 224
M  ZZM   2 37
M  ZZI   2 124
M  ZZM   3 37
M  ZZI   3 124
M  ZZM   4 3
M  ZZI   4 121
M  ZZM   5 7
M  ZZI   5 81
M  ZZM   6 10
M  ZZI   6 191
M  ZZM   7 2
M  ZZI   7 120
M  ZZM   8 2
M  ZZI   8 120
M  ZZM   9 35
M  ZZI   9 53
M  ZZM  10 10
M  ZZI  10 191
M  ZZM  11 3
M  ZZI  11 121
M  ZZM  12 7
M  ZZI  12 81
M  ZZM  13 1
M  ZZI  13 112
M  ZZM  14 1
M  ZZI  14 112
M  ZZM  15 9
M  ZZI  15 220
M  ZZM  16 9
M  ZZI  16 220
M  ZZM  17 37
M  ZZI  17 124
M  ZZM  18 37
M  ZZI  18 125
M  ZZM  19 37
M  ZZI  19 125
M  ZZM  20 37
M  ZZI  20 125
M  ZZM  21 28
M  ZZI  21 11
M  ZZM  22 28
M  ZZI  22 11
M  ZZM  23 28
M  ZZI  23 11
M  ZZM  24 5
M  ZZI  24 1
M  ZZM  25 5
M  ZZI  25 1
M  ZZM  26 5
M  ZZI  26 1
M  ZZM  27 5
M  ZZI  27 1
M  ZZM  28 5
M  ZZI  28 1
M  ZZM  29 5
M  ZZI  29 1
M  ZZM  30 5
M  ZZI  30 1
M  CHG  1   9  -1
M  END
> <IX>
1

> <NAME>
Cereblon_5VBP_3.pdb

> <Score>
-23.269304

> <Natom>
30

> <Nflex>
0

> <Hbond>
-6.456261

> <Hphob>
-3.81583

> <VwInt>
-22.957141

> <Dsolv>
16.3414

> <SolEl>
3.637069

> <Eintl>
6.53711

> <RecConf>
ND

> <projPath>
Cereblon_maps/

> <NAME_>
Cereblon_5VBP_3.pdb

$$$$
