Cereblon_4XUF_7.pdb
  MOLSOFT 04032206243D

 29 31  0  0  1  0  0  0  0  0999 V2000
   79.0019   42.4874   42.6740 C   0  0  0  0  0  0  0  0  0  0  0  0
   78.1845   42.1932   41.5972 C   0  0  0  0  0  0  0  0  0  0  0  0
   77.2661   41.0760   41.4108 C   0  0  0  0  0  0  0  0  0  0  0  0
   77.0872   40.2134   42.2567 O   0  0  0  0  0  0  0  0  0  0  0  0
   76.7252   41.2198   40.1463 N   0  0  0  0  0  0  0  0  0  0  0  0
   77.2221   42.3472   39.5243 C   0  0  0  0  0  0  0  0  0  0  0  0
   76.9871   42.7666   38.3983 O   0  0  0  0  0  0  0  0  0  0  0  0
   78.1580   42.9569   40.4694 C   0  0  0  0  0  0  0  0  0  0  0  0
   78.9571   44.0732   40.3286 C   0  0  0  0  0  0  0  0  0  0  0  0
   79.7987   44.3821   41.3914 C   0  0  0  0  0  0  0  0  0  0  0  0
   79.8212   43.6030   42.5488 C   0  0  0  0  0  0  0  0  0  0  0  0
   75.7170   40.3661   39.5121 C   0  0  2  0  0  0  0  0  0  0  0  0
   74.3368   40.9349   39.8004 C   0  0  0  0  0  0  0  0  0  0  0  0
   74.1498   42.1211   40.0149 O   0  0  0  0  0  0  0  0  0  0  0  0
   73.2860   40.0536   39.7240 N   0  0  0  0  0  0  0  0  0  0  0  0
   73.3236   38.7082   39.4509 C   0  0  0  0  0  0  0  0  0  0  0  0
   72.3079   38.0349   39.3915 O   0  0  0  0  0  0  0  0  0  0  0  0
   74.6884   38.1271   39.1744 C   0  0  0  0  0  0  0  0  0  0  0  0
   75.7704   38.8953   39.9126 C   0  0  0  0  0  0  0  0  0  0  0  0
   79.0114   41.8716   43.5691 H   0  0  0  0  0  0  0  0  0  0  0  0
   78.9267   44.6756   39.4284 H   0  0  0  0  0  0  0  0  0  0  0  0
   80.4469   45.2480   41.3227 H   0  0  0  0  0  0  0  0  0  0  0  0
   80.4876   43.8718   43.3635 H   0  0  0  0  0  0  0  0  0  0  0  0
   75.8572   40.4541   38.4327 H   0  0  0  0  0  0  0  0  0  0  0  0
   72.3676   40.4476   39.8867 H   0  0  0  0  0  0  0  0  0  0  0  0
   74.6942   37.0810   39.4967 H   0  0  0  0  0  0  0  0  0  0  0  0
   74.8500   38.1499   38.0922 H   0  0  0  0  0  0  0  0  0  0  0  0
   76.7560   38.4737   39.6900 H   0  0  0  0  0  0  0  0  0  0  0  0
   75.6067   38.7754   40.9873 H   0  0  0  0  0  0  0  0  0  0  0  0
  1 20  1  0  0  0  0
  1  2  1  0  0  0  0
  1 11  2  0  0  0  0
  2  3  1  0  0  0  0
  2  8  2  0  0  0  0
  3  4  2  0  0  0  0
  3  5  1  0  0  0  0
  5  6  1  0  0  0  0
 12  5  1  0  0  0  0
  6  7  2  0  0  0  0
  6  8  1  0  0  0  0
  8  9  1  0  0  0  0
  9 21  1  0  0  0  0
  9 10  2  0  0  0  0
 10 22  1  0  0  0  0
 10 11  1  0  0  0  0
 11 23  1  0  0  0  0
 12 24  1  0  0  0  0
 12 13  1  0  0  0  0
 12 19  1  0  0  0  0
 13 14  2  0  0  0  0
 13 15  1  0  0  0  0
 15 25  1  0  0  0  0
 15 16  1  0  0  0  0
 16 17  2  0  0  0  0
 16 18  1  0  0  0  0
 18 26  1  0  0  0  0
 18 27  1  0  0  0  0
 18 19  1  0  0  0  0
 19 28  1  0  0  0  0
 19 29  1  0  0  0  0
M  ZZC   1 c1
M  ZZC   2 c2
M  ZZC   3 c3
M  ZZC   4 o1
M  ZZC   5 n1
M  ZZC   6 c4
M  ZZC   7 o2
M  ZZC   8 c5
M  ZZC   9 c6
M  ZZC  10 c7
M  ZZC  11 c8
M  ZZC  12 c9
M  ZZC  13 c10
M  ZZC  14 o3
M  ZZC  15 n2
M  ZZC  16 c11
M  ZZC  17 o4
M  ZZC  18 c12
M  ZZC  19 c13
M  ZZC  20 h11
M  ZZC  21 h61
M  ZZC  22 h71
M  ZZC  23 h81
M  ZZC  24 h91
M  ZZC  25 h21
M  ZZC  26 h121
M  ZZC  27 h122
M  ZZC  28 h131
M  ZZC  29 h132
M  ZZM   1 37
M  ZZI   1 125
M  ZZM   2 37
M  ZZI   2 124
M  ZZM   3 3
M  ZZI   3 121
M  ZZM   4 7
M  ZZI   4 81
M  ZZM   5 10
M  ZZI   5 192
M  ZZM   6 3
M  ZZI   6 121
M  ZZM   7 7
M  ZZI   7 81
M  ZZM   8 37
M  ZZI   8 124
M  ZZM   9 37
M  ZZI   9 125
M  ZZM  10 37
M  ZZI  10 125
M  ZZM  11 37
M  ZZI  11 125
M  ZZM  12 1
M  ZZI  12 113
M  ZZM  13 3
M  ZZI  13 121
M  ZZM  14 7
M  ZZI  14 81
M  ZZM  15 10
M  ZZI  15 191
M  ZZM  16 3
M  ZZI  16 121
M  ZZM  17 7
M  ZZI  17 81
M  ZZM  18 1
M  ZZI  18 112
M  ZZM  19 1
M  ZZI  19 112
M  ZZM  20 5
M  ZZI  20 1
M  ZZM  21 5
M  ZZI  21 1
M  ZZM  22 5
M  ZZI  22 1
M  ZZM  23 5
M  ZZI  23 1
M  ZZM  24 5
M  ZZI  24 1
M  ZZM  25 28
M  ZZI  25 11
M  ZZM  26 5
M  ZZI  26 1
M  ZZM  27 5
M  ZZI  27 1
M  ZZM  28 5
M  ZZI  28 1
M  ZZM  29 5
M  ZZI  29 1
M  END
> <IX>
1

> <NAME>
Cereblon_4XUF_7.pdb

> <Score>
-19.34433

> <Natom>
29

> <Nflex>
1

> <Hbond>
-3.369342

> <Hphob>
-3.541871

> <VwInt>
-22.703531

> <Dsolv>
12.041818

> <SolEl>
5.654436

> <Eintl>
1.488998

> <RecConf>
ND

> <projPath>
Cereblon_maps/

> <NAME_>
Cereblon_4XUF_7.pdb

$$$$
