Cereblon_6VS3_8.pdb
  MOLSOFT 04032206293D

 30 32  0  0  1  0  0  0  0  0999 V2000
   77.8631   41.4105   42.1581 C   0  0  0  0  0  0  0  0  0  0  0  0
   77.1723   41.4000   40.9563 C   0  0  0  0  0  0  0  0  0  0  0  0
   77.4241   42.3522   40.0056 C   0  0  0  0  0  0  0  0  0  0  0  0
   76.5363   42.1044   38.8629 C   0  0  0  0  0  0  0  0  0  0  0  0
   76.5307   42.7569   37.8286 O   0  0  0  0  0  0  0  0  0  0  0  0
   75.7274   41.0377   39.2078 N   0  0  0  0  0  0  0  0  0  0  0  0
   74.4363   40.7690   38.5496 C   0  0  2  0  0  0  0  0  0  0  0  0
   73.3550   41.5463   39.2764 C   0  0  0  0  0  0  0  0  0  0  0  0
   73.6107   42.4424   40.0611 O   0  0  0  0  0  0  0  0  0  0  0  0
   72.0600   41.2119   38.9657 N   0  0  0  0  0  0  0  0  0  0  0  0
   71.6213   40.1404   38.2272 C   0  0  0  0  0  0  0  0  0  0  0  0
   70.4366   39.9896   37.9652 O   0  0  0  0  0  0  0  0  0  0  0  0
   72.6992   39.1966   37.7285 C   0  0  0  0  0  0  0  0  0  0  0  0
   73.9973   39.3110   38.5246 C   0  0  0  0  0  0  0  0  0  0  0  0
   76.1054   40.4759   40.4913 C   0  0  0  0  0  0  0  0  0  0  0  0
   78.3648   43.3544   40.1773 C   0  0  0  0  0  0  0  0  0  0  0  0
   79.0739   43.3598   41.3719 C   0  0  0  0  0  0  0  0  0  0  0  0
   78.8180   42.4023   42.3531 C   0  0  0  0  0  0  0  0  0  0  0  0
   77.6670   40.6736   42.9312 H   0  0  0  0  0  0  0  0  0  0  0  0
   74.4799   41.1858   37.5370 H   0  0  0  0  0  0  0  0  0  0  0  0
   71.3484   41.8289   39.3379 H   0  0  0  0  0  0  0  0  0  0  0  0
   72.3186   38.1722   37.7905 H   0  0  0  0  0  0  0  0  0  0  0  0
   72.8792   39.4248   36.6723 H   0  0  0  0  0  0  0  0  0  0  0  0
   73.8377   38.9411   39.5443 H   0  0  0  0  0  0  0  0  0  0  0  0
   74.7686   38.6777   38.0779 H   0  0  0  0  0  0  0  0  0  0  0  0
   76.4689   39.4523   40.3505 H   0  0  0  0  0  0  0  0  0  0  0  0
   75.2510   40.5048   41.1609 H   0  0  0  0  0  0  0  0  0  0  0  0
   78.5408   44.1053   39.4143 H   0  0  0  0  0  0  0  0  0  0  0  0
   79.8212   44.1264   41.5501 H   0  0  0  0  0  0  0  0  0  0  0  0
   79.3727   42.4319   43.2860 H   0  0  0  0  0  0  0  0  0  0  0  0
  1 19  1  0  0  0  0
  1 18  2  0  0  0  0
  1  2  1  0  0  0  0
  2  3  2  0  0  0  0
  2 15  1  0  0  0  0
  3 16  1  0  0  0  0
  3  4  1  0  0  0  0
  4  6  1  0  0  0  0
  4  5  2  0  0  0  0
  6 15  1  0  0  0  0
  7  6  1  0  0  0  0
  7 20  1  0  0  0  0
  7  8  1  0  0  0  0
  7 14  1  0  0  0  0
  8  9  2  0  0  0  0
  8 10  1  0  0  0  0
 10 21  1  0  0  0  0
 10 11  1  0  0  0  0
 11 12  2  0  0  0  0
 11 13  1  0  0  0  0
 13 22  1  0  0  0  0
 13 23  1  0  0  0  0
 13 14  1  0  0  0  0
 14 24  1  0  0  0  0
 14 25  1  0  0  0  0
 15 26  1  0  0  0  0
 15 27  1  0  0  0  0
 16 17  2  0  0  0  0
 16 28  1  0  0  0  0
 17 18  1  0  0  0  0
 17 29  1  0  0  0  0
 18 30  1  0  0  0  0
M  ZZC   1 c1
M  ZZC   2 c2
M  ZZC   3 c3
M  ZZC   4 c4
M  ZZC   5 o1
M  ZZC   6 n1
M  ZZC   7 c5
M  ZZC   8 c6
M  ZZC   9 o2
M  ZZC  10 n2
M  ZZC  11 c7
M  ZZC  12 o3
M  ZZC  13 c8
M  ZZC  14 c9
M  ZZC  15 c10
M  ZZC  16 c11
M  ZZC  17 c12
M  ZZC  18 c13
M  ZZC  19 h11
M  ZZC  20 h51
M  ZZC  21 h21
M  ZZC  22 h81
M  ZZC  23 h82
M  ZZC  24 h91
M  ZZC  25 h92
M  ZZC  26 h101
M  ZZC  27 h102
M  ZZC  28 h111
M  ZZC  29 h121
M  ZZC  30 h131
M  ZZM   1 37
M  ZZI   1 125
M  ZZM   2 37
M  ZZI   2 124
M  ZZM   3 37
M  ZZI   3 124
M  ZZM   4 3
M  ZZI   4 121
M  ZZM   5 7
M  ZZI   5 81
M  ZZM   6 10
M  ZZI   6 192
M  ZZM   7 1
M  ZZI   7 113
M  ZZM   8 3
M  ZZI   8 121
M  ZZM   9 7
M  ZZI   9 81
M  ZZM  10 10
M  ZZI  10 191
M  ZZM  11 3
M  ZZI  11 121
M  ZZM  12 7
M  ZZI  12 81
M  ZZM  13 1
M  ZZI  13 112
M  ZZM  14 1
M  ZZI  14 112
M  ZZM  15 1
M  ZZI  15 112
M  ZZM  16 37
M  ZZI  16 125
M  ZZM  17 37
M  ZZI  17 125
M  ZZM  18 37
M  ZZI  18 125
M  ZZM  19 5
M  ZZI  19 1
M  ZZM  20 5
M  ZZI  20 1
M  ZZM  21 28
M  ZZI  21 11
M  ZZM  22 5
M  ZZI  22 1
M  ZZM  23 5
M  ZZI  23 1
M  ZZM  24 5
M  ZZI  24 1
M  ZZM  25 5
M  ZZI  25 1
M  ZZM  26 5
M  ZZI  26 1
M  ZZM  27 5
M  ZZI  27 1
M  ZZM  28 5
M  ZZI  28 1
M  ZZM  29 5
M  ZZI  29 1
M  ZZM  30 5
M  ZZI  30 1
M  END
> <IX>
1

> <NAME>
Cereblon_6VS3_8.pdb

> <Score>
-15.342238

> <Natom>
30

> <Nflex>
1

> <Hbond>
-4.236444

> <Hphob>
-3.741416

> <VwInt>
-19.347532

> <Dsolv>
13.781434

> <SolEl>
6.518877

> <Eintl>
3.31952

> <RecConf>
ND

> <projPath>
Cereblon_maps/

> <NAME_>
Cereblon_6VS3_8.pdb

$$$$
