Cereblon_3LQ5_6.pdb
  MOLSOFT 04032206213D

 29 31  0  0  1  0  0  0  0  0999 V2000
   79.0063   42.4907   42.6722 C   0  0  0  0  0  0  0  0  0  0  0  0
   78.1860   42.1968   41.5973 C   0  0  0  0  0  0  0  0  0  0  0  0
   77.2689   41.0782   41.4118 C   0  0  0  0  0  0  0  0  0  0  0  0
   77.0888   40.2181   42.2601 O   0  0  0  0  0  0  0  0  0  0  0  0
   76.7275   41.2208   40.1474 N   0  0  0  0  0  0  0  0  0  0  0  0
   77.2232   42.3482   39.5242 C   0  0  0  0  0  0  0  0  0  0  0  0
   76.9877   42.7656   38.3978 O   0  0  0  0  0  0  0  0  0  0  0  0
   78.1582   42.9599   40.4689 C   0  0  0  0  0  0  0  0  0  0  0  0
   78.9575   44.0756   40.3263 C   0  0  0  0  0  0  0  0  0  0  0  0
   79.8005   44.3850   41.3879 C   0  0  0  0  0  0  0  0  0  0  0  0
   79.8257   43.6060   42.5451 C   0  0  0  0  0  0  0  0  0  0  0  0
   75.7200   40.3654   39.5142 C   0  0  2  0  0  0  0  0  0  0  0  0
   74.3394   40.9335   39.8024 C   0  0  0  0  0  0  0  0  0  0  0  0
   74.1523   42.1199   40.0156 O   0  0  0  0  0  0  0  0  0  0  0  0
   73.2895   40.0511   39.7274 N   0  0  0  0  0  0  0  0  0  0  0  0
   73.3283   38.7050   39.4583 C   0  0  0  0  0  0  0  0  0  0  0  0
   72.3131   38.0304   39.4043 O   0  0  0  0  0  0  0  0  0  0  0  0
   74.6931   38.1243   39.1808 C   0  0  0  0  0  0  0  0  0  0  0  0
   75.7753   38.8951   39.9162 C   0  0  0  0  0  0  0  0  0  0  0  0
   79.0186   41.8751   43.5673 H   0  0  0  0  0  0  0  0  0  0  0  0
   78.9270   44.6766   39.4251 H   0  0  0  0  0  0  0  0  0  0  0  0
   80.4504   45.2496   41.3171 H   0  0  0  0  0  0  0  0  0  0  0  0
   80.4952   43.8731   43.3577 H   0  0  0  0  0  0  0  0  0  0  0  0
   75.8596   40.4530   38.4347 H   0  0  0  0  0  0  0  0  0  0  0  0
   72.3710   40.4446   39.8907 H   0  0  0  0  0  0  0  0  0  0  0  0
   74.7002   37.0786   39.5045 H   0  0  0  0  0  0  0  0  0  0  0  0
   74.8532   38.1459   38.0985 H   0  0  0  0  0  0  0  0  0  0  0  0
   76.7608   38.4737   39.6924 H   0  0  0  0  0  0  0  0  0  0  0  0
   75.6136   38.7756   40.9912 H   0  0  0  0  0  0  0  0  0  0  0  0
  1 20  1  0  0  0  0
  1  2  1  0  0  0  0
  1 11  2  0  0  0  0
  2  3  1  0  0  0  0
  2  8  2  0  0  0  0
  3  4  2  0  0  0  0
  3  5  1  0  0  0  0
  5  6  1  0  0  0  0
 12  5  1  0  0  0  0
  6  7  2  0  0  0  0
  6  8  1  0  0  0  0
  8  9  1  0  0  0  0
  9 21  1  0  0  0  0
  9 10  2  0  0  0  0
 10 22  1  0  0  0  0
 10 11  1  0  0  0  0
 11 23  1  0  0  0  0
 12 24  1  0  0  0  0
 12 13  1  0  0  0  0
 12 19  1  0  0  0  0
 13 14  2  0  0  0  0
 13 15  1  0  0  0  0
 15 25  1  0  0  0  0
 15 16  1  0  0  0  0
 16 17  2  0  0  0  0
 16 18  1  0  0  0  0
 18 26  1  0  0  0  0
 18 27  1  0  0  0  0
 18 19  1  0  0  0  0
 19 28  1  0  0  0  0
 19 29  1  0  0  0  0
M  ZZC   1 c1
M  ZZC   2 c2
M  ZZC   3 c3
M  ZZC   4 o1
M  ZZC   5 n1
M  ZZC   6 c4
M  ZZC   7 o2
M  ZZC   8 c5
M  ZZC   9 c6
M  ZZC  10 c7
M  ZZC  11 c8
M  ZZC  12 c9
M  ZZC  13 c10
M  ZZC  14 o3
M  ZZC  15 n2
M  ZZC  16 c11
M  ZZC  17 o4
M  ZZC  18 c12
M  ZZC  19 c13
M  ZZC  20 h11
M  ZZC  21 h61
M  ZZC  22 h71
M  ZZC  23 h81
M  ZZC  24 h91
M  ZZC  25 h21
M  ZZC  26 h121
M  ZZC  27 h122
M  ZZC  28 h131
M  ZZC  29 h132
M  ZZM   1 37
M  ZZI   1 125
M  ZZM   2 37
M  ZZI   2 124
M  ZZM   3 3
M  ZZI   3 121
M  ZZM   4 7
M  ZZI   4 81
M  ZZM   5 10
M  ZZI   5 192
M  ZZM   6 3
M  ZZI   6 121
M  ZZM   7 7
M  ZZI   7 81
M  ZZM   8 37
M  ZZI   8 124
M  ZZM   9 37
M  ZZI   9 125
M  ZZM  10 37
M  ZZI  10 125
M  ZZM  11 37
M  ZZI  11 125
M  ZZM  12 1
M  ZZI  12 113
M  ZZM  13 3
M  ZZI  13 121
M  ZZM  14 7
M  ZZI  14 81
M  ZZM  15 10
M  ZZI  15 191
M  ZZM  16 3
M  ZZI  16 121
M  ZZM  17 7
M  ZZI  17 81
M  ZZM  18 1
M  ZZI  18 112
M  ZZM  19 1
M  ZZI  19 112
M  ZZM  20 5
M  ZZI  20 1
M  ZZM  21 5
M  ZZI  21 1
M  ZZM  22 5
M  ZZI  22 1
M  ZZM  23 5
M  ZZI  23 1
M  ZZM  24 5
M  ZZI  24 1
M  ZZM  25 28
M  ZZI  25 11
M  ZZM  26 5
M  ZZI  26 1
M  ZZM  27 5
M  ZZI  27 1
M  ZZM  28 5
M  ZZI  28 1
M  ZZM  29 5
M  ZZI  29 1
M  END
> <IX>
1

> <NAME>
Cereblon_3LQ5_6.pdb

> <Score>
-19.235961

> <Natom>
29

> <Nflex>
1

> <Hbond>
-3.303566

> <Hphob>
-3.523884

> <VwInt>
-22.831739

> <Dsolv>
12.068661

> <SolEl>
5.706671

> <Eintl>
1.494838

> <RecConf>
ND

> <projPath>
Cereblon_maps/

> <NAME_>
Cereblon_3LQ5_6.pdb

$$$$
