Cereblon_6VS3_5.pdb
  MOLSOFT 04032206293D

 30 32  0  0  1  0  0  0  0  0999 V2000
   77.5842   41.0488   42.0856 C   0  0  0  0  0  0  0  0  0  0  0  0
   76.9562   41.1197   40.8527 C   0  0  0  0  0  0  0  0  0  0  0  0
   77.2542   42.1320   39.9805 C   0  0  0  0  0  0  0  0  0  0  0  0
   76.4083   41.9742   38.7919 C   0  0  0  0  0  0  0  0  0  0  0  0
   76.4474   42.6959   37.8053 O   0  0  0  0  0  0  0  0  0  0  0  0
   75.5683   40.9043   39.0420 N   0  0  0  0  0  0  0  0  0  0  0  0
   74.2616   40.7528   38.3828 C   0  0  2  0  0  0  0  0  0  0  0  0
   73.2404   41.5272   39.1999 C   0  0  0  0  0  0  0  0  0  0  0  0
   73.5630   42.3764   40.0143 O   0  0  0  0  0  0  0  0  0  0  0  0
   71.9214   41.2502   38.9333 N   0  0  0  0  0  0  0  0  0  0  0  0
   71.4100   40.2459   38.1474 C   0  0  0  0  0  0  0  0  0  0  0  0
   70.2074   40.1332   37.9605 O   0  0  0  0  0  0  0  0  0  0  0  0
   72.4287   39.3299   37.5008 C   0  0  0  0  0  0  0  0  0  0  0  0
   73.7547   39.3209   38.2528 C   0  0  0  0  0  0  0  0  0  0  0  0
   75.9147   40.2304   40.2789 C   0  0  0  0  0  0  0  0  0  0  0  0
   78.1773   43.1239   40.2657 C   0  0  0  0  0  0  0  0  0  0  0  0
   78.8187   43.0507   41.4957 C   0  0  0  0  0  0  0  0  0  0  0  0
   78.5164   42.0304   42.3974 C   0  0  0  0  0  0  0  0  0  0  0  0
   77.3511   40.2606   42.7953 H   0  0  0  0  0  0  0  0  0  0  0  0
   74.3134   41.2441   37.4038 H   0  0  0  0  0  0  0  0  0  0  0  0
   71.2487   41.8559   39.3864 H   0  0  0  0  0  0  0  0  0  0  0  0
   72.0140   38.3173   37.4719 H   0  0  0  0  0  0  0  0  0  0  0  0
   72.5745   39.6641   36.4678 H   0  0  0  0  0  0  0  0  0  0  0  0
   73.6122   38.8718   39.2427 H   0  0  0  0  0  0  0  0  0  0  0  0
   74.4777   38.6928   37.7254 H   0  0  0  0  0  0  0  0  0  0  0  0
   76.3000   39.2304   40.0526 H   0  0  0  0  0  0  0  0  0  0  0  0
   75.0394   40.1768   40.9221 H   0  0  0  0  0  0  0  0  0  0  0  0
   78.3875   43.9259   39.5656 H   0  0  0  0  0  0  0  0  0  0  0  0
   79.5472   43.8084   41.7657 H   0  0  0  0  0  0  0  0  0  0  0  0
   79.0168   42.0026   43.3607 H   0  0  0  0  0  0  0  0  0  0  0  0
  1 19  1  0  0  0  0
  1 18  2  0  0  0  0
  1  2  1  0  0  0  0
  2  3  2  0  0  0  0
  2 15  1  0  0  0  0
  3 16  1  0  0  0  0
  3  4  1  0  0  0  0
  4  6  1  0  0  0  0
  4  5  2  0  0  0  0
  6 15  1  0  0  0  0
  7  6  1  0  0  0  0
  7 20  1  0  0  0  0
  7  8  1  0  0  0  0
  7 14  1  0  0  0  0
  8  9  2  0  0  0  0
  8 10  1  0  0  0  0
 10 21  1  0  0  0  0
 10 11  1  0  0  0  0
 11 12  2  0  0  0  0
 11 13  1  0  0  0  0
 13 22  1  0  0  0  0
 13 23  1  0  0  0  0
 13 14  1  0  0  0  0
 14 24  1  0  0  0  0
 14 25  1  0  0  0  0
 15 26  1  0  0  0  0
 15 27  1  0  0  0  0
 16 17  2  0  0  0  0
 16 28  1  0  0  0  0
 17 18  1  0  0  0  0
 17 29  1  0  0  0  0
 18 30  1  0  0  0  0
M  ZZC   1 c1
M  ZZC   2 c2
M  ZZC   3 c3
M  ZZC   4 c4
M  ZZC   5 o1
M  ZZC   6 n1
M  ZZC   7 c5
M  ZZC   8 c6
M  ZZC   9 o2
M  ZZC  10 n2
M  ZZC  11 c7
M  ZZC  12 o3
M  ZZC  13 c8
M  ZZC  14 c9
M  ZZC  15 c10
M  ZZC  16 c11
M  ZZC  17 c12
M  ZZC  18 c13
M  ZZC  19 h11
M  ZZC  20 h51
M  ZZC  21 h21
M  ZZC  22 h81
M  ZZC  23 h82
M  ZZC  24 h91
M  ZZC  25 h92
M  ZZC  26 h101
M  ZZC  27 h102
M  ZZC  28 h111
M  ZZC  29 h121
M  ZZC  30 h131
M  ZZM   1 37
M  ZZI   1 125
M  ZZM   2 37
M  ZZI   2 124
M  ZZM   3 37
M  ZZI   3 124
M  ZZM   4 3
M  ZZI   4 121
M  ZZM   5 7
M  ZZI   5 81
M  ZZM   6 10
M  ZZI   6 192
M  ZZM   7 1
M  ZZI   7 113
M  ZZM   8 3
M  ZZI   8 121
M  ZZM   9 7
M  ZZI   9 81
M  ZZM  10 10
M  ZZI  10 191
M  ZZM  11 3
M  ZZI  11 121
M  ZZM  12 7
M  ZZI  12 81
M  ZZM  13 1
M  ZZI  13 112
M  ZZM  14 1
M  ZZI  14 112
M  ZZM  15 1
M  ZZI  15 112
M  ZZM  16 37
M  ZZI  16 125
M  ZZM  17 37
M  ZZI  17 125
M  ZZM  18 37
M  ZZI  18 125
M  ZZM  19 5
M  ZZI  19 1
M  ZZM  20 5
M  ZZI  20 1
M  ZZM  21 28
M  ZZI  21 11
M  ZZM  22 5
M  ZZI  22 1
M  ZZM  23 5
M  ZZI  23 1
M  ZZM  24 5
M  ZZI  24 1
M  ZZM  25 5
M  ZZI  25 1
M  ZZM  26 5
M  ZZI  26 1
M  ZZM  27 5
M  ZZI  27 1
M  ZZM  28 5
M  ZZI  28 1
M  ZZM  29 5
M  ZZI  29 1
M  ZZM  30 5
M  ZZI  30 1
M  END
> <IX>
1

> <NAME>
Cereblon_6VS3_5.pdb

> <Score>
-15.784255

> <Natom>
30

> <Nflex>
1

> <Hbond>
-4.234499

> <Hphob>
-3.733814

> <VwInt>
-19.413452

> <Dsolv>
13.93969

> <SolEl>
5.016738

> <Eintl>
4.130533

> <RecConf>
ND

> <projPath>
Cereblon_maps/

> <NAME_>
Cereblon_6VS3_5.pdb

$$$$
