Cereblon_5P9J_15.pdb
  MOLSOFT 04032206263D

 31 33  0  0  1  0  0  0  0  0999 V2000
   78.0664   40.6286   42.6546 N   0  0  0  0  0  0  0  0  0  0  0  0
   78.1215   41.7195   41.7719 C   0  0  0  0  0  0  0  0  0  0  0  0
   77.2968   41.8156   40.6598 C   0  0  0  0  0  0  0  0  0  0  0  0
   76.2287   40.9280   40.2058 C   0  0  0  0  0  0  0  0  0  0  0  0
   75.9776   39.8410   40.7070 O   0  0  0  0  0  0  0  0  0  0  0  0
   75.6100   41.5602   39.1431 N   0  0  0  0  0  0  0  0  0  0  0  0
   76.3379   42.6698   38.7638 C   0  0  0  0  0  0  0  0  0  0  0  0
   76.2369   43.3715   37.7687 O   0  0  0  0  0  0  0  0  0  0  0  0
   77.3737   42.8520   39.7804 C   0  0  0  0  0  0  0  0  0  0  0  0
   78.3153   43.8560   39.9115 C   0  0  0  0  0  0  0  0  0  0  0  0
   79.1812   43.7694   40.9943 C   0  0  0  0  0  0  0  0  0  0  0  0
   79.0817   42.7200   41.9096 C   0  0  0  0  0  0  0  0  0  0  0  0
   74.3625   41.0488   38.5466 C   0  0  1  0  0  0  0  0  0  0  0  0
   73.2248   41.3237   39.5209 C   0  0  0  0  0  0  0  0  0  0  0  0
   73.4019   41.6096   40.6927 O   0  0  0  0  0  0  0  0  0  0  0  0
   71.9548   41.1768   39.0231 N   0  0  0  0  0  0  0  0  0  0  0  0
   71.5766   40.9361   37.7278 C   0  0  0  0  0  0  0  0  0  0  0  0
   70.4144   40.6906   37.4431 O   0  0  0  0  0  0  0  0  0  0  0  0
   72.6925   40.9369   36.7035 C   0  0  0  0  0  0  0  0  0  0  0  0
   73.9308   41.6628   37.2144 C   0  0  0  0  0  0  0  0  0  0  0  0
   78.6437   40.6161   43.4943 H   0  0  0  0  0  0  0  0  0  0  0  0
   77.2682   39.9942   42.5978 H   0  0  0  0  0  0  0  0  0  0  0  0
   78.3749   44.6750   39.2032 H   0  0  0  0  0  0  0  0  0  0  0  0
   79.9390   44.5335   41.1366 H   0  0  0  0  0  0  0  0  0  0  0  0
   79.7704   42.6879   42.7480 H   0  0  0  0  0  0  0  0  0  0  0  0
   74.4600   39.9597   38.4655 H   0  0  0  0  0  0  0  0  0  0  0  0
   71.2039   41.2739   39.6941 H   0  0  0  0  0  0  0  0  0  0  0  0
   72.9290   39.8965   36.4567 H   0  0  0  0  0  0  0  0  0  0  0  0
   72.3288   41.4264   35.7942 H   0  0  0  0  0  0  0  0  0  0  0  0
   74.7246   41.6059   36.4683 H   0  0  0  0  0  0  0  0  0  0  0  0
   73.6996   42.7273   37.3395 H   0  0  0  0  0  0  0  0  0  0  0  0
  1  2  1  0  0  0  0
  1 21  1  0  0  0  0
  1 22  1  0  0  0  0
  2  3  1  0  0  0  0
  2 12  2  0  0  0  0
  3  9  2  0  0  0  0
  3  4  1  0  0  0  0
  4  5  2  0  0  0  0
  4  6  1  0  0  0  0
  6  7  1  0  0  0  0
 13  6  1  0  0  0  0
  7  8  2  0  0  0  0
  7  9  1  0  0  0  0
  9 10  1  0  0  0  0
 10 23  1  0  0  0  0
 10 11  2  0  0  0  0
 11 12  1  0  0  0  0
 11 24  1  0  0  0  0
 12 25  1  0  0  0  0
 13 26  1  0  0  0  0
 13 14  1  0  0  0  0
 13 20  1  0  0  0  0
 14 15  2  0  0  0  0
 14 16  1  0  0  0  0
 16 27  1  0  0  0  0
 16 17  1  0  0  0  0
 17 18  2  0  0  0  0
 17 19  1  0  0  0  0
 19 28  1  0  0  0  0
 19 29  1  0  0  0  0
 19 20  1  0  0  0  0
 20 30  1  0  0  0  0
 20 31  1  0  0  0  0
M  ZZC   1 n1
M  ZZC   2 c1
M  ZZC   3 c2
M  ZZC   4 c3
M  ZZC   5 o1
M  ZZC   6 n2
M  ZZC   7 c4
M  ZZC   8 o2
M  ZZC   9 c5
M  ZZC  10 c6
M  ZZC  11 c7
M  ZZC  12 c8
M  ZZC  13 c9
M  ZZC  14 c10
M  ZZC  15 o3
M  ZZC  16 n3
M  ZZC  17 c11
M  ZZC  18 o4
M  ZZC  19 c12
M  ZZC  20 c13
M  ZZC  21 h11
M  ZZC  22 h12
M  ZZC  23 h61
M  ZZC  24 h71
M  ZZC  25 h81
M  ZZC  26 h91
M  ZZC  27 h31
M  ZZC  28 h121
M  ZZC  29 h122
M  ZZC  30 h131
M  ZZC  31 h132
M  ZZM   1 40
M  ZZI   1 224
M  ZZM   2 37
M  ZZI   2 124
M  ZZM   3 37
M  ZZI   3 124
M  ZZM   4 3
M  ZZI   4 121
M  ZZM   5 7
M  ZZI   5 81
M  ZZM   6 10
M  ZZI   6 192
M  ZZM   7 3
M  ZZI   7 121
M  ZZM   8 7
M  ZZI   8 81
M  ZZM   9 37
M  ZZI   9 124
M  ZZM  10 37
M  ZZI  10 125
M  ZZM  11 37
M  ZZI  11 125
M  ZZM  12 37
M  ZZI  12 125
M  ZZM  13 1
M  ZZI  13 113
M  ZZM  14 3
M  ZZI  14 121
M  ZZM  15 7
M  ZZI  15 81
M  ZZM  16 10
M  ZZI  16 191
M  ZZM  17 3
M  ZZI  17 121
M  ZZM  18 7
M  ZZI  18 81
M  ZZM  19 1
M  ZZI  19 112
M  ZZM  20 1
M  ZZI  20 112
M  ZZM  21 28
M  ZZI  21 11
M  ZZM  22 28
M  ZZI  22 11
M  ZZM  23 5
M  ZZI  23 1
M  ZZM  24 5
M  ZZI  24 1
M  ZZM  25 5
M  ZZI  25 1
M  ZZM  26 5
M  ZZI  26 1
M  ZZM  27 28
M  ZZI  27 11
M  ZZM  28 5
M  ZZI  28 1
M  ZZM  29 5
M  ZZI  29 1
M  ZZM  30 5
M  ZZI  30 1
M  ZZM  31 5
M  ZZI  31 1
M  END
> <IX>
1

> <NAME>
Cereblon_5P9J_15.pdb

> <Score>
-14.665271

> <Natom>
31

> <Nflex>
1

> <Hbond>
-2.771339

> <Hphob>
-3.713228

> <VwInt>
-27.002003

> <Dsolv>
17.324121

> <SolEl>
7.138808

> <Eintl>
5.885632

> <RecConf>
ND

> <projPath>
Cereblon_maps/

> <NAME_>
Cereblon_5P9J_15.pdb

$$$$
