Cereblon_6C7R_1.pdb
  MOLSOFT 04032206283D

 31 33  0  0  1  0  0  0  0  0999 V2000
   78.8121   41.6758   43.8197 N   0  0  0  0  0  0  0  0  0  0  0  0
   78.9065   42.4206   42.6336 C   0  0  0  0  0  0  0  0  0  0  0  0
   78.1002   42.1564   41.5393 C   0  0  0  0  0  0  0  0  0  0  0  0
   77.1787   41.0464   41.3315 C   0  0  0  0  0  0  0  0  0  0  0  0
   76.9976   40.1634   42.1568 O   0  0  0  0  0  0  0  0  0  0  0  0
   76.6447   41.2111   40.0689 N   0  0  0  0  0  0  0  0  0  0  0  0
   77.1663   42.3319   39.4557 C   0  0  0  0  0  0  0  0  0  0  0  0
   76.9535   42.7555   38.3270 O   0  0  0  0  0  0  0  0  0  0  0  0
   78.0977   42.9264   40.4157 C   0  0  0  0  0  0  0  0  0  0  0  0
   78.9092   44.0359   40.2958 C   0  0  0  0  0  0  0  0  0  0  0  0
   79.7246   44.3351   41.3811 C   0  0  0  0  0  0  0  0  0  0  0  0
   79.7112   43.5518   42.5367 C   0  0  0  0  0  0  0  0  0  0  0  0
   75.6246   40.3755   39.4316 C   0  0  2  0  0  0  0  0  0  0  0  0
   74.2533   40.9544   39.7358 C   0  0  0  0  0  0  0  0  0  0  0  0
   74.0837   42.1347   39.9926 O   0  0  0  0  0  0  0  0  0  0  0  0
   73.1920   40.0899   39.6219 N   0  0  0  0  0  0  0  0  0  0  0  0
   73.2162   38.7526   39.3075 C   0  0  0  0  0  0  0  0  0  0  0  0
   72.1909   38.1006   39.1971 O   0  0  0  0  0  0  0  0  0  0  0  0
   74.5791   38.1529   39.0556 C   0  0  0  0  0  0  0  0  0  0  0  0
   75.6570   38.9009   39.8202 C   0  0  0  0  0  0  0  0  0  0  0  0
   79.5520   41.7586   44.5135 H   0  0  0  0  0  0  0  0  0  0  0  0
   78.3223   40.7808   43.7759 H   0  0  0  0  0  0  0  0  0  0  0  0
   78.9027   44.6444   39.3992 H   0  0  0  0  0  0  0  0  0  0  0  0
   80.3724   45.2035   41.3366 H   0  0  0  0  0  0  0  0  0  0  0  0
   80.3428   43.8335   43.3737 H   0  0  0  0  0  0  0  0  0  0  0  0
   75.7599   40.4757   38.3534 H   0  0  0  0  0  0  0  0  0  0  0  0
   72.2770   40.4927   39.7820 H   0  0  0  0  0  0  0  0  0  0  0  0
   74.5621   37.1051   39.3720 H   0  0  0  0  0  0  0  0  0  0  0  0
   74.7682   38.1780   37.9780 H   0  0  0  0  0  0  0  0  0  0  0  0
   75.4711   38.7733   40.8907 H   0  0  0  0  0  0  0  0  0  0  0  0
   76.6418   38.4695   39.6134 H   0  0  0  0  0  0  0  0  0  0  0  0
  1  2  1  0  0  0  0
  1 21  1  0  0  0  0
  1 22  1  0  0  0  0
  2  3  1  0  0  0  0
  2 12  2  0  0  0  0
  3  9  2  0  0  0  0
  3  4  1  0  0  0  0
  4  5  2  0  0  0  0
  4  6  1  0  0  0  0
  6  7  1  0  0  0  0
 13  6  1  0  0  0  0
  7  8  2  0  0  0  0
  7  9  1  0  0  0  0
  9 10  1  0  0  0  0
 10 23  1  0  0  0  0
 10 11  2  0  0  0  0
 11 12  1  0  0  0  0
 11 24  1  0  0  0  0
 12 25  1  0  0  0  0
 13 26  1  0  0  0  0
 13 14  1  0  0  0  0
 13 20  1  0  0  0  0
 14 15  2  0  0  0  0
 14 16  1  0  0  0  0
 16 27  1  0  0  0  0
 16 17  1  0  0  0  0
 17 18  2  0  0  0  0
 17 19  1  0  0  0  0
 19 28  1  0  0  0  0
 19 29  1  0  0  0  0
 19 20  1  0  0  0  0
 20 30  1  0  0  0  0
 20 31  1  0  0  0  0
M  ZZC   1 n1
M  ZZC   2 c1
M  ZZC   3 c2
M  ZZC   4 c3
M  ZZC   5 o1
M  ZZC   6 n2
M  ZZC   7 c4
M  ZZC   8 o2
M  ZZC   9 c5
M  ZZC  10 c6
M  ZZC  11 c7
M  ZZC  12 c8
M  ZZC  13 c9
M  ZZC  14 c10
M  ZZC  15 o3
M  ZZC  16 n3
M  ZZC  17 c11
M  ZZC  18 o4
M  ZZC  19 c12
M  ZZC  20 c13
M  ZZC  21 h11
M  ZZC  22 h12
M  ZZC  23 h61
M  ZZC  24 h71
M  ZZC  25 h81
M  ZZC  26 h91
M  ZZC  27 h31
M  ZZC  28 h121
M  ZZC  29 h122
M  ZZC  30 h131
M  ZZC  31 h132
M  ZZM   1 40
M  ZZI   1 224
M  ZZM   2 37
M  ZZI   2 124
M  ZZM   3 37
M  ZZI   3 124
M  ZZM   4 3
M  ZZI   4 121
M  ZZM   5 7
M  ZZI   5 81
M  ZZM   6 10
M  ZZI   6 192
M  ZZM   7 3
M  ZZI   7 121
M  ZZM   8 7
M  ZZI   8 81
M  ZZM   9 37
M  ZZI   9 124
M  ZZM  10 37
M  ZZI  10 125
M  ZZM  11 37
M  ZZI  11 125
M  ZZM  12 37
M  ZZI  12 125
M  ZZM  13 1
M  ZZI  13 113
M  ZZM  14 3
M  ZZI  14 121
M  ZZM  15 7
M  ZZI  15 81
M  ZZM  16 10
M  ZZI  16 191
M  ZZM  17 3
M  ZZI  17 121
M  ZZM  18 7
M  ZZI  18 81
M  ZZM  19 1
M  ZZI  19 112
M  ZZM  20 1
M  ZZI  20 112
M  ZZM  21 28
M  ZZI  21 11
M  ZZM  22 28
M  ZZI  22 11
M  ZZM  23 5
M  ZZI  23 1
M  ZZM  24 5
M  ZZI  24 1
M  ZZM  25 5
M  ZZI  25 1
M  ZZM  26 5
M  ZZI  26 1
M  ZZM  27 28
M  ZZI  27 11
M  ZZM  28 5
M  ZZI  28 1
M  ZZM  29 5
M  ZZI  29 1
M  ZZM  30 5
M  ZZI  30 1
M  ZZM  31 5
M  ZZI  31 1
M  END
> <IX>
1

> <NAME>
Cereblon_6C7R_1.pdb

> <Score>
-18.491736

> <Natom>
31

> <Nflex>
1

> <Hbond>
-3.698201

> <Hphob>
-3.593672

> <VwInt>
-24.253521

> <Dsolv>
15.045013

> <SolEl>
7.009221

> <Eintl>
1.693581

> <RecConf>
ND

> <projPath>
Cereblon_maps/

> <NAME_>
Cereblon_6C7R_1.pdb

$$$$
