Cereblon_1EJ1_8.pdb
  MOLSOFT 04032206183D

 30 32  0  0  1  0  0  0  0  0999 V2000
   75.6982   37.9150   39.7525 C   0  0  0  0  0  0  0  0  0  0  0  0
   75.0021   39.0137   39.2764 C   0  0  0  0  0  0  0  0  0  0  0  0
   75.3132   40.2655   39.7266 C   0  0  0  0  0  0  0  0  0  0  0  0
   74.4265   41.2241   39.0668 C   0  0  0  0  0  0  0  0  0  0  0  0
   74.4331   42.4196   39.3177 O   0  0  0  0  0  0  0  0  0  0  0  0
   73.6503   40.5033   38.1715 N   0  0  0  0  0  0  0  0  0  0  0  0
   72.6168   41.0282   37.2634 C   0  0  1  0  0  0  0  0  0  0  0  0
   71.2958   41.2539   37.9972 C   0  0  0  0  0  0  0  0  0  0  0  0
   70.9374   40.5835   38.9547 O   0  0  0  0  0  0  0  0  0  0  0  0
   70.4606   42.2063   37.4590 N   0  0  0  0  0  0  0  0  0  0  0  0
   70.6693   43.0280   36.3834 C   0  0  0  0  0  0  0  0  0  0  0  0
   69.8650   43.8964   36.0807 O   0  0  0  0  0  0  0  0  0  0  0  0
   71.9282   42.7607   35.5983 C   0  0  0  0  0  0  0  0  0  0  0  0
   73.0474   42.2866   36.5112 C   0  0  0  0  0  0  0  0  0  0  0  0
   73.8936   39.0750   38.2868 C   0  0  0  0  0  0  0  0  0  0  0  0
   76.3151   40.5125   40.6474 C   0  0  0  0  0  0  0  0  0  0  0  0
   77.0146   39.4159   41.1284 C   0  0  0  0  0  0  0  0  0  0  0  0
   76.7078   38.1327   40.6831 C   0  0  0  0  0  0  0  0  0  0  0  0
   75.4716   36.9106   39.4087 H   0  0  0  0  0  0  0  0  0  0  0  0
   72.4237   40.2431   36.5230 H   0  0  0  0  0  0  0  0  0  0  0  0
   69.5888   42.3565   37.9451 H   0  0  0  0  0  0  0  0  0  0  0  0
   71.7052   42.0180   34.8249 H   0  0  0  0  0  0  0  0  0  0  0  0
   72.2242   43.6885   35.1044 H   0  0  0  0  0  0  0  0  0  0  0  0
   73.9494   42.0848   35.9245 H   0  0  0  0  0  0  0  0  0  0  0  0
   73.2984   43.0915   37.2076 H   0  0  0  0  0  0  0  0  0  0  0  0
   74.1866   38.6682   37.3133 H   0  0  0  0  0  0  0  0  0  0  0  0
   72.9917   38.5793   38.6619 H   0  0  0  0  0  0  0  0  0  0  0  0
   76.5529   41.5191   40.9757 H   0  0  0  0  0  0  0  0  0  0  0  0
   77.8085   39.5616   41.8546 H   0  0  0  0  0  0  0  0  0  0  0  0
   77.2710   37.2880   41.0670 H   0  0  0  0  0  0  0  0  0  0  0  0
  1 19  1  0  0  0  0
  1 18  2  0  0  0  0
  1  2  1  0  0  0  0
  2  3  2  0  0  0  0
  2 15  1  0  0  0  0
  3 16  1  0  0  0  0
  3  4  1  0  0  0  0
  4  6  1  0  0  0  0
  4  5  2  0  0  0  0
  6 15  1  0  0  0  0
  7  6  1  0  0  0  0
  7 20  1  0  0  0  0
  7  8  1  0  0  0  0
  7 14  1  0  0  0  0
  8  9  2  0  0  0  0
  8 10  1  0  0  0  0
 10 21  1  0  0  0  0
 10 11  1  0  0  0  0
 11 12  2  0  0  0  0
 11 13  1  0  0  0  0
 13 22  1  0  0  0  0
 13 23  1  0  0  0  0
 13 14  1  0  0  0  0
 14 24  1  0  0  0  0
 14 25  1  0  0  0  0
 15 26  1  0  0  0  0
 15 27  1  0  0  0  0
 16 17  2  0  0  0  0
 16 28  1  0  0  0  0
 17 18  1  0  0  0  0
 17 29  1  0  0  0  0
 18 30  1  0  0  0  0
M  ZZC   1 c1
M  ZZC   2 c2
M  ZZC   3 c3
M  ZZC   4 c4
M  ZZC   5 o1
M  ZZC   6 n1
M  ZZC   7 c5
M  ZZC   8 c6
M  ZZC   9 o2
M  ZZC  10 n2
M  ZZC  11 c7
M  ZZC  12 o3
M  ZZC  13 c8
M  ZZC  14 c9
M  ZZC  15 c10
M  ZZC  16 c11
M  ZZC  17 c12
M  ZZC  18 c13
M  ZZC  19 h11
M  ZZC  20 h51
M  ZZC  21 h21
M  ZZC  22 h81
M  ZZC  23 h82
M  ZZC  24 h91
M  ZZC  25 h92
M  ZZC  26 h101
M  ZZC  27 h102
M  ZZC  28 h111
M  ZZC  29 h121
M  ZZC  30 h131
M  ZZM   1 37
M  ZZI   1 125
M  ZZM   2 37
M  ZZI   2 124
M  ZZM   3 37
M  ZZI   3 124
M  ZZM   4 3
M  ZZI   4 121
M  ZZM   5 7
M  ZZI   5 81
M  ZZM   6 10
M  ZZI   6 192
M  ZZM   7 1
M  ZZI   7 113
M  ZZM   8 3
M  ZZI   8 121
M  ZZM   9 7
M  ZZI   9 81
M  ZZM  10 10
M  ZZI  10 191
M  ZZM  11 3
M  ZZI  11 121
M  ZZM  12 7
M  ZZI  12 81
M  ZZM  13 1
M  ZZI  13 112
M  ZZM  14 1
M  ZZI  14 112
M  ZZM  15 1
M  ZZI  15 112
M  ZZM  16 37
M  ZZI  16 125
M  ZZM  17 37
M  ZZI  17 125
M  ZZM  18 37
M  ZZI  18 125
M  ZZM  19 5
M  ZZI  19 1
M  ZZM  20 5
M  ZZI  20 1
M  ZZM  21 28
M  ZZI  21 11
M  ZZM  22 5
M  ZZI  22 1
M  ZZM  23 5
M  ZZI  23 1
M  ZZM  24 5
M  ZZI  24 1
M  ZZM  25 5
M  ZZI  25 1
M  ZZM  26 5
M  ZZI  26 1
M  ZZM  27 5
M  ZZI  27 1
M  ZZM  28 5
M  ZZI  28 1
M  ZZM  29 5
M  ZZI  29 1
M  ZZM  30 5
M  ZZI  30 1
M  END
> <IX>
1

> <NAME>
Cereblon_1EJ1_8.pdb

> <Score>
-20.632898

> <Natom>
30

> <Nflex>
1

> <Hbond>
-4.609846

> <Hphob>
-3.611557

> <VwInt>
-21.853971

> <Dsolv>
13.253468

> <SolEl>
5.695501

> <Eintl>
1.674326

> <RecConf>
ND

> <projPath>
Cereblon_maps/

> <NAME_>
Cereblon_1EJ1_8.pdb

$$$$
