Cereblon_5L2T_3.pdb
  MOLSOFT 04032206263D

 31 33  0  0  1  0  0  0  0  0999 V2000
   78.8130   41.6783   43.8203 N   0  0  0  0  0  0  0  0  0  0  0  0
   78.9077   42.4224   42.6337 C   0  0  0  0  0  0  0  0  0  0  0  0
   78.1016   42.1575   41.5393 C   0  0  0  0  0  0  0  0  0  0  0  0
   77.1809   41.0468   41.3318 C   0  0  0  0  0  0  0  0  0  0  0  0
   77.0001   40.1637   42.1570 O   0  0  0  0  0  0  0  0  0  0  0  0
   76.6467   41.2115   40.0693 N   0  0  0  0  0  0  0  0  0  0  0  0
   77.1676   42.3326   39.4560 C   0  0  0  0  0  0  0  0  0  0  0  0
   76.9548   42.7554   38.3270 O   0  0  0  0  0  0  0  0  0  0  0  0
   78.0987   42.9277   40.4159 C   0  0  0  0  0  0  0  0  0  0  0  0
   78.9098   44.0375   40.2957 C   0  0  0  0  0  0  0  0  0  0  0  0
   79.7252   44.3372   41.3809 C   0  0  0  0  0  0  0  0  0  0  0  0
   79.7121   43.5539   42.5366 C   0  0  0  0  0  0  0  0  0  0  0  0
   75.6271   40.3753   39.4319 C   0  0  2  0  0  0  0  0  0  0  0  0
   74.2557   40.9541   39.7358 C   0  0  0  0  0  0  0  0  0  0  0  0
   74.0856   42.1342   39.9933 O   0  0  0  0  0  0  0  0  0  0  0  0
   73.1946   40.0893   39.6213 N   0  0  0  0  0  0  0  0  0  0  0  0
   73.2192   38.7510   39.3114 C   0  0  0  0  0  0  0  0  0  0  0  0
   72.1945   38.0972   39.2062 O   0  0  0  0  0  0  0  0  0  0  0  0
   74.5821   38.1523   39.0573 C   0  0  0  0  0  0  0  0  0  0  0  0
   75.6599   38.9009   39.8213 C   0  0  0  0  0  0  0  0  0  0  0  0
   79.5533   41.7608   44.5135 H   0  0  0  0  0  0  0  0  0  0  0  0
   78.3233   40.7833   43.7775 H   0  0  0  0  0  0  0  0  0  0  0  0
   78.9024   44.6456   39.3989 H   0  0  0  0  0  0  0  0  0  0  0  0
   80.3731   45.2056   41.3374 H   0  0  0  0  0  0  0  0  0  0  0  0
   80.3435   43.8354   43.3739 H   0  0  0  0  0  0  0  0  0  0  0  0
   75.7624   40.4749   38.3536 H   0  0  0  0  0  0  0  0  0  0  0  0
   72.2793   40.4913   39.7817 H   0  0  0  0  0  0  0  0  0  0  0  0
   74.5677   37.1041   39.3730 H   0  0  0  0  0  0  0  0  0  0  0  0
   74.7692   38.1784   37.9793 H   0  0  0  0  0  0  0  0  0  0  0  0
   75.4750   38.7737   40.8919 H   0  0  0  0  0  0  0  0  0  0  0  0
   76.6445   38.4697   39.6142 H   0  0  0  0  0  0  0  0  0  0  0  0
  1  2  1  0  0  0  0
  1 21  1  0  0  0  0
  1 22  1  0  0  0  0
  2  3  1  0  0  0  0
  2 12  2  0  0  0  0
  3  9  2  0  0  0  0
  3  4  1  0  0  0  0
  4  5  2  0  0  0  0
  4  6  1  0  0  0  0
  6  7  1  0  0  0  0
 13  6  1  0  0  0  0
  7  8  2  0  0  0  0
  7  9  1  0  0  0  0
  9 10  1  0  0  0  0
 10 23  1  0  0  0  0
 10 11  2  0  0  0  0
 11 12  1  0  0  0  0
 11 24  1  0  0  0  0
 12 25  1  0  0  0  0
 13 26  1  0  0  0  0
 13 14  1  0  0  0  0
 13 20  1  0  0  0  0
 14 15  2  0  0  0  0
 14 16  1  0  0  0  0
 16 27  1  0  0  0  0
 16 17  1  0  0  0  0
 17 18  2  0  0  0  0
 17 19  1  0  0  0  0
 19 28  1  0  0  0  0
 19 29  1  0  0  0  0
 19 20  1  0  0  0  0
 20 30  1  0  0  0  0
 20 31  1  0  0  0  0
M  ZZC   1 n1
M  ZZC   2 c1
M  ZZC   3 c2
M  ZZC   4 c3
M  ZZC   5 o1
M  ZZC   6 n2
M  ZZC   7 c4
M  ZZC   8 o2
M  ZZC   9 c5
M  ZZC  10 c6
M  ZZC  11 c7
M  ZZC  12 c8
M  ZZC  13 c9
M  ZZC  14 c10
M  ZZC  15 o3
M  ZZC  16 n3
M  ZZC  17 c11
M  ZZC  18 o4
M  ZZC  19 c12
M  ZZC  20 c13
M  ZZC  21 h11
M  ZZC  22 h12
M  ZZC  23 h61
M  ZZC  24 h71
M  ZZC  25 h81
M  ZZC  26 h91
M  ZZC  27 h31
M  ZZC  28 h121
M  ZZC  29 h122
M  ZZC  30 h131
M  ZZC  31 h132
M  ZZM   1 40
M  ZZI   1 224
M  ZZM   2 37
M  ZZI   2 124
M  ZZM   3 37
M  ZZI   3 124
M  ZZM   4 3
M  ZZI   4 121
M  ZZM   5 7
M  ZZI   5 81
M  ZZM   6 10
M  ZZI   6 192
M  ZZM   7 3
M  ZZI   7 121
M  ZZM   8 7
M  ZZI   8 81
M  ZZM   9 37
M  ZZI   9 124
M  ZZM  10 37
M  ZZI  10 125
M  ZZM  11 37
M  ZZI  11 125
M  ZZM  12 37
M  ZZI  12 125
M  ZZM  13 1
M  ZZI  13 113
M  ZZM  14 3
M  ZZI  14 121
M  ZZM  15 7
M  ZZI  15 81
M  ZZM  16 10
M  ZZI  16 191
M  ZZM  17 3
M  ZZI  17 121
M  ZZM  18 7
M  ZZI  18 81
M  ZZM  19 1
M  ZZI  19 112
M  ZZM  20 1
M  ZZI  20 112
M  ZZM  21 28
M  ZZI  21 11
M  ZZM  22 28
M  ZZI  22 11
M  ZZM  23 5
M  ZZI  23 1
M  ZZM  24 5
M  ZZI  24 1
M  ZZM  25 5
M  ZZI  25 1
M  ZZM  26 5
M  ZZI  26 1
M  ZZM  27 28
M  ZZI  27 11
M  ZZM  28 5
M  ZZI  28 1
M  ZZM  29 5
M  ZZI  29 1
M  ZZM  30 5
M  ZZI  30 1
M  ZZM  31 5
M  ZZI  31 1
M  END
> <IX>
1

> <NAME>
Cereblon_5L2T_3.pdb

> <Score>
-18.287209

> <Natom>
31

> <Nflex>
1

> <Hbond>
-3.714894

> <Hphob>
-3.565891

> <VwInt>
-24.208408

> <Dsolv>
15.182648

> <SolEl>
7.12384

> <Eintl>
1.700512

> <RecConf>
ND

> <projPath>
Cereblon_maps/

> <NAME_>
Cereblon_5L2T_3.pdb

$$$$
