Cereblon_1HWK_27.pdb
  MOLSOFT 04032206193D

 29 31  0  0  1  0  0  0  0  0999 V2000
   76.9822   39.3639   41.1259 C   0  0  0  0  0  0  0  0  0  0  0  0
   76.3167   40.4894   40.6564 C   0  0  0  0  0  0  0  0  0  0  0  0
   75.3274   40.2822   39.7120 C   0  0  0  0  0  0  0  0  0  0  0  0
   74.4564   41.2470   39.0474 C   0  0  0  0  0  0  0  0  0  0  0  0
   74.4466   42.4320   39.3426 O   0  0  0  0  0  0  0  0  0  0  0  0
   73.6947   40.5323   38.1402 N   0  0  0  0  0  0  0  0  0  0  0  0
   73.9596   39.1815   38.2485 C   0  0  0  0  0  0  0  0  0  0  0  0
   73.4537   38.2407   37.6540 O   0  0  0  0  0  0  0  0  0  0  0  0
   75.0162   39.0420   39.2487 C   0  0  0  0  0  0  0  0  0  0  0  0
   75.6621   37.9072   39.7042 C   0  0  0  0  0  0  0  0  0  0  0  0
   76.6589   38.0908   40.6565 C   0  0  0  0  0  0  0  0  0  0  0  0
   72.6637   41.0698   37.2396 C   0  0  1  0  0  0  0  0  0  0  0  0
   71.3563   41.2742   37.9985 C   0  0  0  0  0  0  0  0  0  0  0  0
   71.0429   40.6179   38.9811 O   0  0  0  0  0  0  0  0  0  0  0  0
   70.4861   42.1945   37.4604 N   0  0  0  0  0  0  0  0  0  0  0  0
   70.6766   43.0425   36.4013 C   0  0  0  0  0  0  0  0  0  0  0  0
   69.8515   43.8967   36.1151 O   0  0  0  0  0  0  0  0  0  0  0  0
   71.9474   42.8314   35.6174 C   0  0  0  0  0  0  0  0  0  0  0  0
   73.0760   42.3499   36.5159 C   0  0  0  0  0  0  0  0  0  0  0  0
   77.7659   39.4801   41.8691 H   0  0  0  0  0  0  0  0  0  0  0  0
   76.5716   41.4832   41.0107 H   0  0  0  0  0  0  0  0  0  0  0  0
   75.4080   36.9197   39.3313 H   0  0  0  0  0  0  0  0  0  0  0  0
   77.1955   37.2289   41.0403 H   0  0  0  0  0  0  0  0  0  0  0  0
   72.4522   40.2992   36.4889 H   0  0  0  0  0  0  0  0  0  0  0  0
   69.6158   42.3227   37.9553 H   0  0  0  0  0  0  0  0  0  0  0  0
   71.7453   42.1126   34.8162 H   0  0  0  0  0  0  0  0  0  0  0  0
   72.2237   43.7847   35.1617 H   0  0  0  0  0  0  0  0  0  0  0  0
   73.9788   42.1739   35.9217 H   0  0  0  0  0  0  0  0  0  0  0  0
   73.3225   43.1420   37.2278 H   0  0  0  0  0  0  0  0  0  0  0  0
  1 20  1  0  0  0  0
  1  2  1  0  0  0  0
  1 11  2  0  0  0  0
  2 21  1  0  0  0  0
  2  3  2  0  0  0  0
  3  4  1  0  0  0  0
  3  9  1  0  0  0  0
  4  5  2  0  0  0  0
  4  6  1  0  0  0  0
  6  7  1  0  0  0  0
 12  6  1  0  0  0  0
  7  8  2  0  0  0  0
  7  9  1  0  0  0  0
  9 10  2  0  0  0  0
 10 22  1  0  0  0  0
 10 11  1  0  0  0  0
 11 23  1  0  0  0  0
 12 24  1  0  0  0  0
 12 13  1  0  0  0  0
 12 19  1  0  0  0  0
 13 14  2  0  0  0  0
 13 15  1  0  0  0  0
 15 25  1  0  0  0  0
 15 16  1  0  0  0  0
 16 17  2  0  0  0  0
 16 18  1  0  0  0  0
 18 26  1  0  0  0  0
 18 27  1  0  0  0  0
 18 19  1  0  0  0  0
 19 28  1  0  0  0  0
 19 29  1  0  0  0  0
M  ZZC   1 c1
M  ZZC   2 c2
M  ZZC   3 c3
M  ZZC   4 c4
M  ZZC   5 o1
M  ZZC   6 n1
M  ZZC   7 c5
M  ZZC   8 o2
M  ZZC   9 c6
M  ZZC  10 c7
M  ZZC  11 c8
M  ZZC  12 c9
M  ZZC  13 c10
M  ZZC  14 o3
M  ZZC  15 n2
M  ZZC  16 c11
M  ZZC  17 o4
M  ZZC  18 c12
M  ZZC  19 c13
M  ZZC  20 h11
M  ZZC  21 h21
M  ZZC  22 h71
M  ZZC  23 h81
M  ZZC  24 h91
M  ZZC  25 h01
M  ZZC  26 h121
M  ZZC  27 h122
M  ZZC  28 h131
M  ZZC  29 h132
M  ZZM   1 37
M  ZZI   1 125
M  ZZM   2 37
M  ZZI   2 125
M  ZZM   3 37
M  ZZI   3 124
M  ZZM   4 3
M  ZZI   4 121
M  ZZM   5 7
M  ZZI   5 81
M  ZZM   6 10
M  ZZI   6 192
M  ZZM   7 3
M  ZZI   7 121
M  ZZM   8 7
M  ZZI   8 81
M  ZZM   9 37
M  ZZI   9 124
M  ZZM  10 37
M  ZZI  10 125
M  ZZM  11 37
M  ZZI  11 125
M  ZZM  12 1
M  ZZI  12 113
M  ZZM  13 3
M  ZZI  13 121
M  ZZM  14 7
M  ZZI  14 81
M  ZZM  15 10
M  ZZI  15 191
M  ZZM  16 3
M  ZZI  16 121
M  ZZM  17 7
M  ZZI  17 81
M  ZZM  18 1
M  ZZI  18 112
M  ZZM  19 1
M  ZZI  19 112
M  ZZM  20 5
M  ZZI  20 1
M  ZZM  21 5
M  ZZI  21 1
M  ZZM  22 5
M  ZZI  22 1
M  ZZM  23 5
M  ZZI  23 1
M  ZZM  24 5
M  ZZI  24 1
M  ZZM  25 28
M  ZZI  25 11
M  ZZM  26 5
M  ZZI  26 1
M  ZZM  27 5
M  ZZI  27 1
M  ZZM  28 5
M  ZZI  28 1
M  ZZM  29 5
M  ZZI  29 1
M  END
> <IX>
1

> <NAME>
Cereblon_1HWK_27.pdb

> <Score>
-20.55811

> <Natom>
29

> <Nflex>
1

> <Hbond>
-4.559599

> <Hphob>
-3.52791

> <VwInt>
-22.417029

> <Dsolv>
13.435644

> <SolEl>
7.180441

> <Eintl>
0.570967

> <RecConf>
ND

> <projPath>
Cereblon_maps/

> <NAME_>
Cereblon_1HWK_27.pdb

$$$$
