Cereblon_5L2I_5.pdb
  MOLSOFT 04032206253D

 29 31  0  0  1  0  0  0  0  0999 V2000
   78.9981   42.4847   42.6747 C   0  0  0  0  0  0  0  0  0  0  0  0
   78.1816   42.1915   41.5970 C   0  0  0  0  0  0  0  0  0  0  0  0
   77.2644   41.0739   41.4083 C   0  0  0  0  0  0  0  0  0  0  0  0
   77.0847   40.2115   42.2544 O   0  0  0  0  0  0  0  0  0  0  0  0
   76.7243   41.2187   40.1437 N   0  0  0  0  0  0  0  0  0  0  0  0
   77.2217   42.3465   39.5229 C   0  0  0  0  0  0  0  0  0  0  0  0
   76.9867   42.7669   38.3972 O   0  0  0  0  0  0  0  0  0  0  0  0
   78.1566   42.9558   40.4694 C   0  0  0  0  0  0  0  0  0  0  0  0
   78.9561   44.0719   40.3302 C   0  0  0  0  0  0  0  0  0  0  0  0
   79.7969   44.3796   41.3941 C   0  0  0  0  0  0  0  0  0  0  0  0
   79.8182   43.6000   42.5512 C   0  0  0  0  0  0  0  0  0  0  0  0
   75.7152   40.3659   39.5095 C   0  0  2  0  0  0  0  0  0  0  0  0
   74.3351   40.9351   39.7977 C   0  0  0  0  0  0  0  0  0  0  0  0
   74.1492   42.1209   40.0150 O   0  0  0  0  0  0  0  0  0  0  0  0
   73.2837   40.0549   39.7177 N   0  0  0  0  0  0  0  0  0  0  0  0
   73.3215   38.7089   39.4470 C   0  0  0  0  0  0  0  0  0  0  0  0
   72.3062   38.0349   39.3900 O   0  0  0  0  0  0  0  0  0  0  0  0
   74.6862   38.1271   39.1703 C   0  0  0  0  0  0  0  0  0  0  0  0
   75.7675   38.8951   39.9099 C   0  0  0  0  0  0  0  0  0  0  0  0
   79.0065   41.8682   43.5693 H   0  0  0  0  0  0  0  0  0  0  0  0
   78.9261   44.6751   39.4306 H   0  0  0  0  0  0  0  0  0  0  0  0
   80.4454   45.2454   41.3272 H   0  0  0  0  0  0  0  0  0  0  0  0
   80.4835   43.8668   43.3674 H   0  0  0  0  0  0  0  0  0  0  0  0
   75.8557   40.4548   38.4303 H   0  0  0  0  0  0  0  0  0  0  0  0
   72.3656   40.4494   39.8803 H   0  0  0  0  0  0  0  0  0  0  0  0
   74.6914   37.0809   39.4924 H   0  0  0  0  0  0  0  0  0  0  0  0
   74.8488   38.1505   38.0884 H   0  0  0  0  0  0  0  0  0  0  0  0
   75.6024   38.7750   40.9842 H   0  0  0  0  0  0  0  0  0  0  0  0
   76.7532   38.4727   39.6889 H   0  0  0  0  0  0  0  0  0  0  0  0
  1 20  1  0  0  0  0
  1  2  1  0  0  0  0
  1 11  2  0  0  0  0
  2  3  1  0  0  0  0
  2  8  2  0  0  0  0
  3  4  2  0  0  0  0
  3  5  1  0  0  0  0
  5  6  1  0  0  0  0
 12  5  1  0  0  0  0
  6  7  2  0  0  0  0
  6  8  1  0  0  0  0
  8  9  1  0  0  0  0
  9 21  1  0  0  0  0
  9 10  2  0  0  0  0
 10 22  1  0  0  0  0
 10 11  1  0  0  0  0
 11 23  1  0  0  0  0
 12 24  1  0  0  0  0
 12 13  1  0  0  0  0
 12 19  1  0  0  0  0
 13 14  2  0  0  0  0
 13 15  1  0  0  0  0
 15 25  1  0  0  0  0
 15 16  1  0  0  0  0
 16 17  2  0  0  0  0
 16 18  1  0  0  0  0
 18 26  1  0  0  0  0
 18 27  1  0  0  0  0
 18 19  1  0  0  0  0
 19 28  1  0  0  0  0
 19 29  1  0  0  0  0
M  ZZC   1 c1
M  ZZC   2 c2
M  ZZC   3 c3
M  ZZC   4 o1
M  ZZC   5 n1
M  ZZC   6 c4
M  ZZC   7 o2
M  ZZC   8 c5
M  ZZC   9 c6
M  ZZC  10 c7
M  ZZC  11 c8
M  ZZC  12 c9
M  ZZC  13 c10
M  ZZC  14 o3
M  ZZC  15 n2
M  ZZC  16 c11
M  ZZC  17 o4
M  ZZC  18 c12
M  ZZC  19 c13
M  ZZC  20 h11
M  ZZC  21 h61
M  ZZC  22 h71
M  ZZC  23 h81
M  ZZC  24 h91
M  ZZC  25 h21
M  ZZC  26 h121
M  ZZC  27 h122
M  ZZC  28 h131
M  ZZC  29 h132
M  ZZM   1 37
M  ZZI   1 125
M  ZZM   2 37
M  ZZI   2 124
M  ZZM   3 3
M  ZZI   3 121
M  ZZM   4 7
M  ZZI   4 81
M  ZZM   5 10
M  ZZI   5 192
M  ZZM   6 3
M  ZZI   6 121
M  ZZM   7 7
M  ZZI   7 81
M  ZZM   8 37
M  ZZI   8 124
M  ZZM   9 37
M  ZZI   9 125
M  ZZM  10 37
M  ZZI  10 125
M  ZZM  11 37
M  ZZI  11 125
M  ZZM  12 1
M  ZZI  12 113
M  ZZM  13 3
M  ZZI  13 121
M  ZZM  14 7
M  ZZI  14 81
M  ZZM  15 10
M  ZZI  15 191
M  ZZM  16 3
M  ZZI  16 121
M  ZZM  17 7
M  ZZI  17 81
M  ZZM  18 1
M  ZZI  18 112
M  ZZM  19 1
M  ZZI  19 112
M  ZZM  20 5
M  ZZI  20 1
M  ZZM  21 5
M  ZZI  21 1
M  ZZM  22 5
M  ZZI  22 1
M  ZZM  23 5
M  ZZI  23 1
M  ZZM  24 5
M  ZZI  24 1
M  ZZM  25 28
M  ZZI  25 11
M  ZZM  26 5
M  ZZI  26 1
M  ZZM  27 5
M  ZZI  27 1
M  ZZM  28 5
M  ZZI  28 1
M  ZZM  29 5
M  ZZI  29 1
M  END
> <IX>
1

> <NAME>
Cereblon_5L2I_5.pdb

> <Score>
-19.402581

> <Natom>
29

> <Nflex>
1

> <Hbond>
-3.365043

> <Hphob>
-3.577551

> <VwInt>
-22.715897

> <Dsolv>
12.073222

> <SolEl>
5.56976

> <Eintl>
1.488126

> <RecConf>
ND

> <projPath>
Cereblon_maps/

> <NAME_>
Cereblon_5L2I_5.pdb

$$$$
