Cereblon_6J3O_3.pdb
  MOLSOFT 04032206283D

 29 31  0  0  1  0  0  0  0  0999 V2000
   75.6735   37.9018   39.7055 C   0  0  0  0  0  0  0  0  0  0  0  0
   75.0241   39.0367   39.2550 C   0  0  0  0  0  0  0  0  0  0  0  0
   73.9672   39.1776   38.2547 C   0  0  0  0  0  0  0  0  0  0  0  0
   73.4645   38.2377   37.6562 O   0  0  0  0  0  0  0  0  0  0  0  0
   73.6993   40.5284   38.1520 N   0  0  0  0  0  0  0  0  0  0  0  0
   74.4587   41.2402   39.0645 C   0  0  0  0  0  0  0  0  0  0  0  0
   74.4475   42.4285   39.3452 O   0  0  0  0  0  0  0  0  0  0  0  0
   75.3325   40.2756   39.7240 C   0  0  0  0  0  0  0  0  0  0  0  0
   76.3216   40.4817   40.6684 C   0  0  0  0  0  0  0  0  0  0  0  0
   76.9909   39.3560   41.1325 C   0  0  0  0  0  0  0  0  0  0  0  0
   76.6705   38.0840   40.6577 C   0  0  0  0  0  0  0  0  0  0  0  0
   72.6718   41.0680   37.2486 C   0  0  1  0  0  0  0  0  0  0  0  0
   71.3621   41.2725   38.0034 C   0  0  0  0  0  0  0  0  0  0  0  0
   71.0456   40.6175   38.9857 O   0  0  0  0  0  0  0  0  0  0  0  0
   70.4939   42.1927   37.4614 N   0  0  0  0  0  0  0  0  0  0  0  0
   70.6886   43.0408   36.4030 C   0  0  0  0  0  0  0  0  0  0  0  0
   69.8658   43.8965   36.1147 O   0  0  0  0  0  0  0  0  0  0  0  0
   71.9620   42.8291   35.6235 C   0  0  0  0  0  0  0  0  0  0  0  0
   73.0872   42.3480   36.5261 C   0  0  0  0  0  0  0  0  0  0  0  0
   75.4229   36.9147   39.3283 H   0  0  0  0  0  0  0  0  0  0  0  0
   76.5741   41.4749   41.0263 H   0  0  0  0  0  0  0  0  0  0  0  0
   77.7749   39.4705   41.8752 H   0  0  0  0  0  0  0  0  0  0  0  0
   77.2112   37.2220   41.0364 H   0  0  0  0  0  0  0  0  0  0  0  0
   72.4626   40.2977   36.4971 H   0  0  0  0  0  0  0  0  0  0  0  0
   69.6221   42.3224   37.9535 H   0  0  0  0  0  0  0  0  0  0  0  0
   71.7627   42.1106   34.8213 H   0  0  0  0  0  0  0  0  0  0  0  0
   72.2402   43.7813   35.1674 H   0  0  0  0  0  0  0  0  0  0  0  0
   73.3307   43.1408   37.2384 H   0  0  0  0  0  0  0  0  0  0  0  0
   73.9916   42.1721   35.9350 H   0  0  0  0  0  0  0  0  0  0  0  0
  1 20  1  0  0  0  0
  1  2  1  0  0  0  0
  1 11  2  0  0  0  0
  2  3  1  0  0  0  0
  2  8  2  0  0  0  0
  3  4  2  0  0  0  0
  3  5  1  0  0  0  0
  5  6  1  0  0  0  0
 12  5  1  0  0  0  0
  6  7  2  0  0  0  0
  6  8  1  0  0  0  0
  8  9  1  0  0  0  0
  9 21  1  0  0  0  0
  9 10  2  0  0  0  0
 10 22  1  0  0  0  0
 10 11  1  0  0  0  0
 11 23  1  0  0  0  0
 12 24  1  0  0  0  0
 12 13  1  0  0  0  0
 12 19  1  0  0  0  0
 13 14  2  0  0  0  0
 13 15  1  0  0  0  0
 15 25  1  0  0  0  0
 15 16  1  0  0  0  0
 16 17  2  0  0  0  0
 16 18  1  0  0  0  0
 18 26  1  0  0  0  0
 18 27  1  0  0  0  0
 18 19  1  0  0  0  0
 19 28  1  0  0  0  0
 19 29  1  0  0  0  0
M  ZZC   1 c1
M  ZZC   2 c2
M  ZZC   3 c3
M  ZZC   4 o1
M  ZZC   5 n1
M  ZZC   6 c4
M  ZZC   7 o2
M  ZZC   8 c5
M  ZZC   9 c6
M  ZZC  10 c7
M  ZZC  11 c8
M  ZZC  12 c9
M  ZZC  13 c10
M  ZZC  14 o3
M  ZZC  15 n2
M  ZZC  16 c11
M  ZZC  17 o4
M  ZZC  18 c12
M  ZZC  19 c13
M  ZZC  20 h11
M  ZZC  21 h61
M  ZZC  22 h71
M  ZZC  23 h81
M  ZZC  24 h91
M  ZZC  25 h21
M  ZZC  26 h121
M  ZZC  27 h122
M  ZZC  28 h131
M  ZZC  29 h132
M  ZZM   1 37
M  ZZI   1 125
M  ZZM   2 37
M  ZZI   2 124
M  ZZM   3 3
M  ZZI   3 121
M  ZZM   4 7
M  ZZI   4 81
M  ZZM   5 10
M  ZZI   5 192
M  ZZM   6 3
M  ZZI   6 121
M  ZZM   7 7
M  ZZI   7 81
M  ZZM   8 37
M  ZZI   8 124
M  ZZM   9 37
M  ZZI   9 125
M  ZZM  10 37
M  ZZI  10 125
M  ZZM  11 37
M  ZZI  11 125
M  ZZM  12 1
M  ZZI  12 113
M  ZZM  13 3
M  ZZI  13 121
M  ZZM  14 7
M  ZZI  14 81
M  ZZM  15 10
M  ZZI  15 191
M  ZZM  16 3
M  ZZI  16 121
M  ZZM  17 7
M  ZZI  17 81
M  ZZM  18 1
M  ZZI  18 112
M  ZZM  19 1
M  ZZI  19 112
M  ZZM  20 5
M  ZZI  20 1
M  ZZM  21 5
M  ZZI  21 1
M  ZZM  22 5
M  ZZI  22 1
M  ZZM  23 5
M  ZZI  23 1
M  ZZM  24 5
M  ZZI  24 1
M  ZZM  25 28
M  ZZI  25 11
M  ZZM  26 5
M  ZZI  26 1
M  ZZM  27 5
M  ZZI  27 1
M  ZZM  28 5
M  ZZI  28 1
M  ZZM  29 5
M  ZZI  29 1
M  END
> <IX>
1

> <NAME>
Cereblon_6J3O_3.pdb

> <Score>
-20.841649

> <Natom>
29

> <Nflex>
1

> <Hbond>
-4.544953

> <Hphob>
-3.57172

> <VwInt>
-22.366958

> <Dsolv>
13.256081

> <SolEl>
6.908896

> <Eintl>
0.525267

> <RecConf>
ND

> <projPath>
Cereblon_maps/

> <NAME_>
Cereblon_6J3O_3.pdb

$$$$
