Cereblon_4IPF_2.pdb
  MOLSOFT 04032206233D

 30 32  0  0  1  0  0  0  0  0999 V2000
   76.5077   38.0056   40.5475 C   0  0  0  0  0  0  0  0  0  0  0  0
   75.7764   39.0409   39.9898 C   0  0  0  0  0  0  0  0  0  0  0  0
   75.9854   40.3262   40.4076 C   0  0  0  0  0  0  0  0  0  0  0  0
   75.0850   41.1981   39.6512 C   0  0  0  0  0  0  0  0  0  0  0  0
   74.9550   42.3973   39.8370 O   0  0  0  0  0  0  0  0  0  0  0  0
   74.4434   40.4032   38.7216 N   0  0  0  0  0  0  0  0  0  0  0  0
   73.4094   40.8571   37.7847 C   0  0  2  0  0  0  0  0  0  0  0  0
   73.8597   42.1017   37.0121 C   0  0  0  0  0  0  0  0  0  0  0  0
   75.0287   42.3500   36.7520 O   0  0  0  0  0  0  0  0  0  0  0  0
   72.8540   42.9224   36.5528 N   0  0  0  0  0  0  0  0  0  0  0  0
   71.4987   42.8113   36.7486 C   0  0  0  0  0  0  0  0  0  0  0  0
   70.7116   43.6512   36.3381 O   0  0  0  0  0  0  0  0  0  0  0  0
   71.0450   41.5621   37.4603 C   0  0  0  0  0  0  0  0  0  0  0  0
   72.0729   41.0919   38.4759 C   0  0  0  0  0  0  0  0  0  0  0  0
   74.7090   38.9958   38.9535 C   0  0  0  0  0  0  0  0  0  0  0  0
   76.9114   40.6691   41.3766 C   0  0  0  0  0  0  0  0  0  0  0  0
   77.6403   39.6346   41.9432 C   0  0  0  0  0  0  0  0  0  0  0  0
   77.4422   38.3203   41.5280 C   0  0  0  0  0  0  0  0  0  0  0  0
   76.3567   36.9776   40.2330 H   0  0  0  0  0  0  0  0  0  0  0  0
   73.2927   40.0662   37.0345 H   0  0  0  0  0  0  0  0  0  0  0  0
   73.1548   43.7460   36.0500 H   0  0  0  0  0  0  0  0  0  0  0  0
   70.1025   41.7793   37.9676 H   0  0  0  0  0  0  0  0  0  0  0  0
   70.8564   40.7881   36.7094 H   0  0  0  0  0  0  0  0  0  0  0  0
   72.1812   41.8258   39.2808 H   0  0  0  0  0  0  0  0  0  0  0  0
   71.7246   40.1690   38.9510 H   0  0  0  0  0  0  0  0  0  0  0  0
   75.0233   38.5124   38.0259 H   0  0  0  0  0  0  0  0  0  0  0  0
   73.8035   38.5193   39.3451 H   0  0  0  0  0  0  0  0  0  0  0  0
   77.0732   41.6991   41.6789 H   0  0  0  0  0  0  0  0  0  0  0  0
   78.3717   39.8526   42.7157 H   0  0  0  0  0  0  0  0  0  0  0  0
   78.0254   37.5271   41.9847 H   0  0  0  0  0  0  0  0  0  0  0  0
  1 19  1  0  0  0  0
  1 18  2  0  0  0  0
  1  2  1  0  0  0  0
  2  3  2  0  0  0  0
  2 15  1  0  0  0  0
  3 16  1  0  0  0  0
  3  4  1  0  0  0  0
  4  6  1  0  0  0  0
  4  5  2  0  0  0  0
  6 15  1  0  0  0  0
  7  6  1  0  0  0  0
  7 20  1  0  0  0  0
  7  8  1  0  0  0  0
  7 14  1  0  0  0  0
  8  9  2  0  0  0  0
  8 10  1  0  0  0  0
 10 21  1  0  0  0  0
 10 11  1  0  0  0  0
 11 12  2  0  0  0  0
 11 13  1  0  0  0  0
 13 22  1  0  0  0  0
 13 23  1  0  0  0  0
 13 14  1  0  0  0  0
 14 24  1  0  0  0  0
 14 25  1  0  0  0  0
 15 26  1  0  0  0  0
 15 27  1  0  0  0  0
 16 17  2  0  0  0  0
 16 28  1  0  0  0  0
 17 18  1  0  0  0  0
 17 29  1  0  0  0  0
 18 30  1  0  0  0  0
M  ZZC   1 c1
M  ZZC   2 c2
M  ZZC   3 c3
M  ZZC   4 c4
M  ZZC   5 o1
M  ZZC   6 n1
M  ZZC   7 c5
M  ZZC   8 c6
M  ZZC   9 o2
M  ZZC  10 n2
M  ZZC  11 c7
M  ZZC  12 o3
M  ZZC  13 c8
M  ZZC  14 c9
M  ZZC  15 c10
M  ZZC  16 c11
M  ZZC  17 c12
M  ZZC  18 c13
M  ZZC  19 h11
M  ZZC  20 h51
M  ZZC  21 h21
M  ZZC  22 h81
M  ZZC  23 h82
M  ZZC  24 h91
M  ZZC  25 h92
M  ZZC  26 h101
M  ZZC  27 h102
M  ZZC  28 h111
M  ZZC  29 h121
M  ZZC  30 h131
M  ZZM   1 37
M  ZZI   1 125
M  ZZM   2 37
M  ZZI   2 124
M  ZZM   3 37
M  ZZI   3 124
M  ZZM   4 3
M  ZZI   4 121
M  ZZM   5 7
M  ZZI   5 81
M  ZZM   6 10
M  ZZI   6 192
M  ZZM   7 1
M  ZZI   7 113
M  ZZM   8 3
M  ZZI   8 121
M  ZZM   9 7
M  ZZI   9 81
M  ZZM  10 10
M  ZZI  10 191
M  ZZM  11 3
M  ZZI  11 121
M  ZZM  12 7
M  ZZI  12 81
M  ZZM  13 1
M  ZZI  13 112
M  ZZM  14 1
M  ZZI  14 112
M  ZZM  15 1
M  ZZI  15 112
M  ZZM  16 37
M  ZZI  16 125
M  ZZM  17 37
M  ZZI  17 125
M  ZZM  18 37
M  ZZI  18 125
M  ZZM  19 5
M  ZZI  19 1
M  ZZM  20 5
M  ZZI  20 1
M  ZZM  21 28
M  ZZI  21 11
M  ZZM  22 5
M  ZZI  22 1
M  ZZM  23 5
M  ZZI  23 1
M  ZZM  24 5
M  ZZI  24 1
M  ZZM  25 5
M  ZZI  25 1
M  ZZM  26 5
M  ZZI  26 1
M  ZZM  27 5
M  ZZI  27 1
M  ZZM  28 5
M  ZZI  28 1
M  ZZM  29 5
M  ZZI  29 1
M  ZZM  30 5
M  ZZI  30 1
M  END
> <IX>
1

> <NAME>
Cereblon_4IPF_2.pdb

> <Score>
-17.144107

> <Natom>
30

> <Nflex>
1

> <Hbond>
-4.65276

> <Hphob>
-3.622722

> <VwInt>
-20.575192

> <Dsolv>
14.290791

> <SolEl>
6.169906

> <Eintl>
3.732603

> <RecConf>
ND

> <projPath>
Cereblon_maps/

> <NAME_>
Cereblon_4IPF_2.pdb

$$$$
