Cereblon_1HWK_20.pdb
  MOLSOFT 04032206193D

 31 33  0  0  1  0  0  0  0  0999 V2000
   77.9942   40.6333   42.7173 N   0  0  0  0  0  0  0  0  0  0  0  0
   78.1432   41.6611   41.7707 C   0  0  0  0  0  0  0  0  0  0  0  0
   77.3015   41.7870   40.6745 C   0  0  0  0  0  0  0  0  0  0  0  0
   76.2289   40.9087   40.2142 C   0  0  0  0  0  0  0  0  0  0  0  0
   75.9832   39.8133   40.6997 O   0  0  0  0  0  0  0  0  0  0  0  0
   75.6120   41.5527   39.1577 N   0  0  0  0  0  0  0  0  0  0  0  0
   76.3444   42.6627   38.7877 C   0  0  0  0  0  0  0  0  0  0  0  0
   76.2453   43.3736   37.7991 O   0  0  0  0  0  0  0  0  0  0  0  0
   77.3822   42.8313   39.8047 C   0  0  0  0  0  0  0  0  0  0  0  0
   78.3244   43.8332   39.9484 C   0  0  0  0  0  0  0  0  0  0  0  0
   79.1738   43.7446   41.0440 C   0  0  0  0  0  0  0  0  0  0  0  0
   79.0662   42.6893   41.9520 C   0  0  0  0  0  0  0  0  0  0  0  0
   74.3652   41.0487   38.5539 C   0  0  1  0  0  0  0  0  0  0  0  0
   73.2251   41.3219   39.5255 C   0  0  0  0  0  0  0  0  0  0  0  0
   73.3991   41.6046   40.6984 O   0  0  0  0  0  0  0  0  0  0  0  0
   71.9568   41.1774   39.0230 N   0  0  0  0  0  0  0  0  0  0  0  0
   71.5829   40.9434   37.7253 C   0  0  0  0  0  0  0  0  0  0  0  0
   70.4217   40.6994   37.4353 O   0  0  0  0  0  0  0  0  0  0  0  0
   72.7019   40.9493   36.7044 C   0  0  0  0  0  0  0  0  0  0  0  0
   73.9399   41.6702   37.2233 C   0  0  0  0  0  0  0  0  0  0  0  0
   78.7746   40.4203   43.3372 H   0  0  0  0  0  0  0  0  0  0  0  0
   77.3625   39.8667   42.4817 H   0  0  0  0  0  0  0  0  0  0  0  0
   78.3870   44.6595   39.2487 H   0  0  0  0  0  0  0  0  0  0  0  0
   79.9155   44.5197   41.2100 H   0  0  0  0  0  0  0  0  0  0  0  0
   79.7212   42.6722   42.8175 H   0  0  0  0  0  0  0  0  0  0  0  0
   74.4601   39.9598   38.4675 H   0  0  0  0  0  0  0  0  0  0  0  0
   71.2038   41.2728   39.6921 H   0  0  0  0  0  0  0  0  0  0  0  0
   72.9380   39.9105   36.4507 H   0  0  0  0  0  0  0  0  0  0  0  0
   72.3413   41.4454   35.7974 H   0  0  0  0  0  0  0  0  0  0  0  0
   74.7366   41.6155   36.4803 H   0  0  0  0  0  0  0  0  0  0  0  0
   73.7105   42.7347   37.3523 H   0  0  0  0  0  0  0  0  0  0  0  0
  1  2  1  0  0  0  0
  1 21  1  0  0  0  0
  1 22  1  0  0  0  0
  2  3  1  0  0  0  0
  2 12  2  0  0  0  0
  3  9  2  0  0  0  0
  3  4  1  0  0  0  0
  4  5  2  0  0  0  0
  4  6  1  0  0  0  0
  6  7  1  0  0  0  0
 13  6  1  0  0  0  0
  7  8  2  0  0  0  0
  7  9  1  0  0  0  0
  9 10  1  0  0  0  0
 10 23  1  0  0  0  0
 10 11  2  0  0  0  0
 11 12  1  0  0  0  0
 11 24  1  0  0  0  0
 12 25  1  0  0  0  0
 13 26  1  0  0  0  0
 13 14  1  0  0  0  0
 13 20  1  0  0  0  0
 14 15  2  0  0  0  0
 14 16  1  0  0  0  0
 16 27  1  0  0  0  0
 16 17  1  0  0  0  0
 17 18  2  0  0  0  0
 17 19  1  0  0  0  0
 19 28  1  0  0  0  0
 19 29  1  0  0  0  0
 19 20  1  0  0  0  0
 20 30  1  0  0  0  0
 20 31  1  0  0  0  0
M  ZZC   1 n1
M  ZZC   2 c1
M  ZZC   3 c2
M  ZZC   4 c3
M  ZZC   5 o1
M  ZZC   6 n2
M  ZZC   7 c4
M  ZZC   8 o2
M  ZZC   9 c5
M  ZZC  10 c6
M  ZZC  11 c7
M  ZZC  12 c8
M  ZZC  13 c9
M  ZZC  14 c10
M  ZZC  15 o3
M  ZZC  16 n3
M  ZZC  17 c11
M  ZZC  18 o4
M  ZZC  19 c12
M  ZZC  20 c13
M  ZZC  21 h11
M  ZZC  22 h12
M  ZZC  23 h61
M  ZZC  24 h71
M  ZZC  25 h81
M  ZZC  26 h91
M  ZZC  27 h31
M  ZZC  28 h121
M  ZZC  29 h122
M  ZZC  30 h131
M  ZZC  31 h132
M  ZZM   1 40
M  ZZI   1 224
M  ZZM   2 37
M  ZZI   2 124
M  ZZM   3 37
M  ZZI   3 124
M  ZZM   4 3
M  ZZI   4 121
M  ZZM   5 7
M  ZZI   5 81
M  ZZM   6 10
M  ZZI   6 192
M  ZZM   7 3
M  ZZI   7 121
M  ZZM   8 7
M  ZZI   8 81
M  ZZM   9 37
M  ZZI   9 124
M  ZZM  10 37
M  ZZI  10 125
M  ZZM  11 37
M  ZZI  11 125
M  ZZM  12 37
M  ZZI  12 125
M  ZZM  13 1
M  ZZI  13 113
M  ZZM  14 3
M  ZZI  14 121
M  ZZM  15 7
M  ZZI  15 81
M  ZZM  16 10
M  ZZI  16 191
M  ZZM  17 3
M  ZZI  17 121
M  ZZM  18 7
M  ZZI  18 81
M  ZZM  19 1
M  ZZI  19 112
M  ZZM  20 1
M  ZZI  20 112
M  ZZM  21 28
M  ZZI  21 11
M  ZZM  22 28
M  ZZI  22 11
M  ZZM  23 5
M  ZZI  23 1
M  ZZM  24 5
M  ZZI  24 1
M  ZZM  25 5
M  ZZI  25 1
M  ZZM  26 5
M  ZZI  26 1
M  ZZM  27 28
M  ZZI  27 11
M  ZZM  28 5
M  ZZI  28 1
M  ZZM  29 5
M  ZZI  29 1
M  ZZM  30 5
M  ZZI  30 1
M  ZZM  31 5
M  ZZI  31 1
M  END
> <IX>
1

> <NAME>
Cereblon_1HWK_20.pdb

> <Score>
-15.224682

> <Natom>
31

> <Nflex>
1

> <Hbond>
-2.892748

> <Hphob>
-3.692074

> <VwInt>
-27.008898

> <Dsolv>
17.152132

> <SolEl>
7.12288

> <Eintl>
5.685597

> <RecConf>
ND

> <projPath>
Cereblon_maps/

> <NAME_>
Cereblon_1HWK_20.pdb

$$$$
