Cereblon_4CI3_12.pdb
  MOLSOFT 04032206233D

 31 33  0  0  1  0  0  0  0  0999 V2000
   81.6205   53.0707   19.7118 N   0  0  0  0  0  0  0  0  0  0  0  0
   81.9305   54.4366   19.7386 C   0  0  0  0  0  0  0  0  0  0  0  0
   81.2275   55.3343   20.5239 C   0  0  0  0  0  0  0  0  0  0  0  0
   80.0269   55.1214   21.3274 C   0  0  0  0  0  0  0  0  0  0  0  0
   79.4220   54.0610   21.4042 O   0  0  0  0  0  0  0  0  0  0  0  0
   79.7553   56.3247   21.9415 N   0  0  0  0  0  0  0  0  0  0  0  0
   80.6672   57.2908   21.5702 C   0  0  0  0  0  0  0  0  0  0  0  0
   80.7402   58.4678   21.8918 O   0  0  0  0  0  0  0  0  0  0  0  0
   81.6061   56.6355   20.6629 C   0  0  0  0  0  0  0  0  0  0  0  0
   82.7226   57.1481   20.0294 C   0  0  0  0  0  0  0  0  0  0  0  0
   83.4570   56.2644   19.2488 C   0  0  0  0  0  0  0  0  0  0  0  0
   83.0767   54.9270   19.1258 C   0  0  0  0  0  0  0  0  0  0  0  0
   78.6138   56.5106   22.8367 C   0  0  2  0  0  0  0  0  0  0  0  0
   77.4629   57.1883   22.1176 C   0  0  0  0  0  0  0  0  0  0  0  0
   77.3248   57.1805   20.9033 O   0  0  0  0  0  0  0  0  0  0  0  0
   76.5153   57.7389   22.9476 N   0  0  0  0  0  0  0  0  0  0  0  0
   76.4995   57.7906   24.3209 C   0  0  0  0  0  0  0  0  0  0  0  0
   75.5339   58.2123   24.9367 O   0  0  0  0  0  0  0  0  0  0  0  0
   77.7219   57.2469   25.0223 C   0  0  0  0  0  0  0  0  0  0  0  0
   78.9340   57.2841   24.1120 C   0  0  0  0  0  0  0  0  0  0  0  0
   82.0393   52.5228   18.9654 H   0  0  0  0  0  0  0  0  0  0  0  0
   80.6517   52.8377   19.9289 H   0  0  0  0  0  0  0  0  0  0  0  0
   83.0206   58.1855   20.1466 H   0  0  0  0  0  0  0  0  0  0  0  0
   84.3509   56.6144   18.7396 H   0  0  0  0  0  0  0  0  0  0  0  0
   83.6885   54.2528   18.5350 H   0  0  0  0  0  0  0  0  0  0  0  0
   78.2474   55.5140   23.0978 H   0  0  0  0  0  0  0  0  0  0  0  0
   75.7214   58.1599   22.4837 H   0  0  0  0  0  0  0  0  0  0  0  0
   77.9110   57.8447   25.9196 H   0  0  0  0  0  0  0  0  0  0  0  0
   77.5113   56.2213   25.3347 H   0  0  0  0  0  0  0  0  0  0  0  0
   79.7974   56.8497   24.6239 H   0  0  0  0  0  0  0  0  0  0  0  0
   79.1865   58.3262   23.8889 H   0  0  0  0  0  0  0  0  0  0  0  0
  1  2  1  0  0  0  0
  1 21  1  0  0  0  0
  1 22  1  0  0  0  0
  2  3  1  0  0  0  0
  2 12  2  0  0  0  0
  3  9  2  0  0  0  0
  3  4  1  0  0  0  0
  4  5  2  0  0  0  0
  4  6  1  0  0  0  0
  6  7  1  0  0  0  0
 13  6  1  0  0  0  0
  7  8  2  0  0  0  0
  7  9  1  0  0  0  0
  9 10  1  0  0  0  0
 10 23  1  0  0  0  0
 10 11  2  0  0  0  0
 11 12  1  0  0  0  0
 11 24  1  0  0  0  0
 12 25  1  0  0  0  0
 13 26  1  0  0  0  0
 13 14  1  0  0  0  0
 13 20  1  0  0  0  0
 14 15  2  0  0  0  0
 14 16  1  0  0  0  0
 16 27  1  0  0  0  0
 16 17  1  0  0  0  0
 17 18  2  0  0  0  0
 17 19  1  0  0  0  0
 19 28  1  0  0  0  0
 19 29  1  0  0  0  0
 19 20  1  0  0  0  0
 20 30  1  0  0  0  0
 20 31  1  0  0  0  0
M  ZZC   1 n1
M  ZZC   2 c1
M  ZZC   3 c2
M  ZZC   4 c3
M  ZZC   5 o1
M  ZZC   6 n2
M  ZZC   7 c4
M  ZZC   8 o2
M  ZZC   9 c5
M  ZZC  10 c6
M  ZZC  11 c7
M  ZZC  12 c8
M  ZZC  13 c9
M  ZZC  14 c10
M  ZZC  15 o3
M  ZZC  16 n3
M  ZZC  17 c11
M  ZZC  18 o4
M  ZZC  19 c12
M  ZZC  20 c13
M  ZZC  21 h11
M  ZZC  22 h12
M  ZZC  23 h61
M  ZZC  24 h71
M  ZZC  25 h81
M  ZZC  26 h91
M  ZZC  27 h31
M  ZZC  28 h121
M  ZZC  29 h122
M  ZZC  30 h131
M  ZZC  31 h132
M  ZZM   1 40
M  ZZI   1 224
M  ZZM   2 37
M  ZZI   2 124
M  ZZM   3 37
M  ZZI   3 124
M  ZZM   4 3
M  ZZI   4 121
M  ZZM   5 7
M  ZZI   5 81
M  ZZM   6 10
M  ZZI   6 192
M  ZZM   7 3
M  ZZI   7 121
M  ZZM   8 7
M  ZZI   8 81
M  ZZM   9 37
M  ZZI   9 124
M  ZZM  10 37
M  ZZI  10 125
M  ZZM  11 37
M  ZZI  11 125
M  ZZM  12 37
M  ZZI  12 125
M  ZZM  13 1
M  ZZI  13 113
M  ZZM  14 3
M  ZZI  14 121
M  ZZM  15 7
M  ZZI  15 81
M  ZZM  16 10
M  ZZI  16 191
M  ZZM  17 3
M  ZZI  17 121
M  ZZM  18 7
M  ZZI  18 81
M  ZZM  19 1
M  ZZI  19 112
M  ZZM  20 1
M  ZZI  20 112
M  ZZM  21 28
M  ZZI  21 11
M  ZZM  22 28
M  ZZI  22 11
M  ZZM  23 5
M  ZZI  23 1
M  ZZM  24 5
M  ZZI  24 1
M  ZZM  25 5
M  ZZI  25 1
M  ZZM  26 5
M  ZZI  26 1
M  ZZM  27 28
M  ZZI  27 11
M  ZZM  28 5
M  ZZI  28 1
M  ZZM  29 5
M  ZZI  29 1
M  ZZM  30 5
M  ZZI  30 1
M  ZZM  31 5
M  ZZI  31 1
M  END
> <IX>
1

> <NAME>
Cereblon_4CI3_12.pdb

> <Score>
-23.185268

> <Natom>
31

> <Nflex>
1

> <Hbond>
-4.468336

> <Hphob>
-3.400074

> <VwInt>
-24.629218

> <Dsolv>
13.935007

> <SolEl>
5.297608

> <Eintl>
0.798691

> <RecConf>
ND

> <projPath>
Cereblon_maps/

> <NAME_>
Cereblon_4CI3_12.pdb

$$$$
