Cereblon_3LQ5_2.pdb
  MOLSOFT 04032206213D

 29 31  0  0  1  0  0  0  0  0999 V2000
   79.0053   42.4909   42.6714 C   0  0  0  0  0  0  0  0  0  0  0  0
   78.1860   42.1958   41.5963 C   0  0  0  0  0  0  0  0  0  0  0  0
   77.2676   41.0782   41.4114 C   0  0  0  0  0  0  0  0  0  0  0  0
   77.0872   40.2182   42.2598 O   0  0  0  0  0  0  0  0  0  0  0  0
   76.7271   41.2201   40.1466 N   0  0  0  0  0  0  0  0  0  0  0  0
   77.2230   42.3473   39.5233 C   0  0  0  0  0  0  0  0  0  0  0  0
   76.9872   42.7643   38.3967 O   0  0  0  0  0  0  0  0  0  0  0  0
   78.1579   42.9589   40.4680 C   0  0  0  0  0  0  0  0  0  0  0  0
   78.9567   44.0750   40.3249 C   0  0  0  0  0  0  0  0  0  0  0  0
   79.8000   44.3842   41.3861 C   0  0  0  0  0  0  0  0  0  0  0  0
   79.8247   43.6061   42.5440 C   0  0  0  0  0  0  0  0  0  0  0  0
   75.7186   40.3651   39.5142 C   0  0  2  0  0  0  0  0  0  0  0  0
   74.3386   40.9337   39.8030 C   0  0  0  0  0  0  0  0  0  0  0  0
   74.1512   42.1201   40.0157 O   0  0  0  0  0  0  0  0  0  0  0  0
   73.2884   40.0515   39.7279 N   0  0  0  0  0  0  0  0  0  0  0  0
   73.3265   38.7057   39.4563 C   0  0  0  0  0  0  0  0  0  0  0  0
   72.3108   38.0321   39.3998 O   0  0  0  0  0  0  0  0  0  0  0  0
   74.6910   38.1245   39.1794 C   0  0  0  0  0  0  0  0  0  0  0  0
   75.7734   38.8942   39.9159 C   0  0  0  0  0  0  0  0  0  0  0  0
   79.0179   41.8760   43.5675 H   0  0  0  0  0  0  0  0  0  0  0  0
   78.9254   44.6755   39.4237 H   0  0  0  0  0  0  0  0  0  0  0  0
   80.4490   45.2497   41.3160 H   0  0  0  0  0  0  0  0  0  0  0  0
   80.4930   43.8744   43.3576 H   0  0  0  0  0  0  0  0  0  0  0  0
   75.8576   40.4522   38.4347 H   0  0  0  0  0  0  0  0  0  0  0  0
   72.3700   40.4454   39.8906 H   0  0  0  0  0  0  0  0  0  0  0  0
   74.6975   37.0789   39.5028 H   0  0  0  0  0  0  0  0  0  0  0  0
   74.8524   38.1468   38.0972 H   0  0  0  0  0  0  0  0  0  0  0  0
   75.6105   38.7744   40.9907 H   0  0  0  0  0  0  0  0  0  0  0  0
   76.7588   38.4727   39.6929 H   0  0  0  0  0  0  0  0  0  0  0  0
  1 20  1  0  0  0  0
  1  2  1  0  0  0  0
  1 11  2  0  0  0  0
  2  3  1  0  0  0  0
  2  8  2  0  0  0  0
  3  4  2  0  0  0  0
  3  5  1  0  0  0  0
  5  6  1  0  0  0  0
 12  5  1  0  0  0  0
  6  7  2  0  0  0  0
  6  8  1  0  0  0  0
  8  9  1  0  0  0  0
  9 21  1  0  0  0  0
  9 10  2  0  0  0  0
 10 22  1  0  0  0  0
 10 11  1  0  0  0  0
 11 23  1  0  0  0  0
 12 24  1  0  0  0  0
 12 13  1  0  0  0  0
 12 19  1  0  0  0  0
 13 14  2  0  0  0  0
 13 15  1  0  0  0  0
 15 25  1  0  0  0  0
 15 16  1  0  0  0  0
 16 17  2  0  0  0  0
 16 18  1  0  0  0  0
 18 26  1  0  0  0  0
 18 27  1  0  0  0  0
 18 19  1  0  0  0  0
 19 28  1  0  0  0  0
 19 29  1  0  0  0  0
M  ZZC   1 c1
M  ZZC   2 c2
M  ZZC   3 c3
M  ZZC   4 o1
M  ZZC   5 n1
M  ZZC   6 c4
M  ZZC   7 o2
M  ZZC   8 c5
M  ZZC   9 c6
M  ZZC  10 c7
M  ZZC  11 c8
M  ZZC  12 c9
M  ZZC  13 c10
M  ZZC  14 o3
M  ZZC  15 n2
M  ZZC  16 c11
M  ZZC  17 o4
M  ZZC  18 c12
M  ZZC  19 c13
M  ZZC  20 h11
M  ZZC  21 h61
M  ZZC  22 h71
M  ZZC  23 h81
M  ZZC  24 h91
M  ZZC  25 h21
M  ZZC  26 h121
M  ZZC  27 h122
M  ZZC  28 h131
M  ZZC  29 h132
M  ZZM   1 37
M  ZZI   1 125
M  ZZM   2 37
M  ZZI   2 124
M  ZZM   3 3
M  ZZI   3 121
M  ZZM   4 7
M  ZZI   4 81
M  ZZM   5 10
M  ZZI   5 192
M  ZZM   6 3
M  ZZI   6 121
M  ZZM   7 7
M  ZZI   7 81
M  ZZM   8 37
M  ZZI   8 124
M  ZZM   9 37
M  ZZI   9 125
M  ZZM  10 37
M  ZZI  10 125
M  ZZM  11 37
M  ZZI  11 125
M  ZZM  12 1
M  ZZI  12 113
M  ZZM  13 3
M  ZZI  13 121
M  ZZM  14 7
M  ZZI  14 81
M  ZZM  15 10
M  ZZI  15 191
M  ZZM  16 3
M  ZZI  16 121
M  ZZM  17 7
M  ZZI  17 81
M  ZZM  18 1
M  ZZI  18 112
M  ZZM  19 1
M  ZZI  19 112
M  ZZM  20 5
M  ZZI  20 1
M  ZZM  21 5
M  ZZI  21 1
M  ZZM  22 5
M  ZZI  22 1
M  ZZM  23 5
M  ZZI  23 1
M  ZZM  24 5
M  ZZI  24 1
M  ZZM  25 28
M  ZZI  25 11
M  ZZM  26 5
M  ZZI  26 1
M  ZZM  27 5
M  ZZI  27 1
M  ZZM  28 5
M  ZZI  28 1
M  ZZM  29 5
M  ZZI  29 1
M  END
> <IX>
1

> <NAME>
Cereblon_3LQ5_2.pdb

> <Score>
-19.447909

> <Natom>
29

> <Nflex>
1

> <Hbond>
-3.37232

> <Hphob>
-3.535243

> <VwInt>
-22.697116

> <Dsolv>
11.999391

> <SolEl>
5.541117

> <Eintl>
1.488516

> <RecConf>
ND

> <projPath>
Cereblon_maps/

> <NAME_>
Cereblon_3LQ5_2.pdb

$$$$
