Cereblon_4MXO_9.pdb
  MOLSOFT 04032206233D

 31 33  0  0  1  0  0  0  0  0999 V2000
   78.8135   41.6780   43.8195 N   0  0  0  0  0  0  0  0  0  0  0  0
   78.9073   42.4223   42.6330 C   0  0  0  0  0  0  0  0  0  0  0  0
   78.1011   42.1573   41.5388 C   0  0  0  0  0  0  0  0  0  0  0  0
   77.1804   41.0466   41.3315 C   0  0  0  0  0  0  0  0  0  0  0  0
   76.9993   40.1639   42.1572 O   0  0  0  0  0  0  0  0  0  0  0  0
   76.6457   41.2112   40.0692 N   0  0  0  0  0  0  0  0  0  0  0  0
   77.1668   42.3320   39.4554 C   0  0  0  0  0  0  0  0  0  0  0  0
   76.9539   42.7547   38.3265 O   0  0  0  0  0  0  0  0  0  0  0  0
   78.0981   42.9272   40.4151 C   0  0  0  0  0  0  0  0  0  0  0  0
   78.9088   44.0371   40.2948 C   0  0  0  0  0  0  0  0  0  0  0  0
   79.7244   44.3371   41.3798 C   0  0  0  0  0  0  0  0  0  0  0  0
   79.7116   43.5538   42.5356 C   0  0  0  0  0  0  0  0  0  0  0  0
   75.6261   40.3749   39.4322 C   0  0  2  0  0  0  0  0  0  0  0  0
   74.2546   40.9533   39.7366 C   0  0  0  0  0  0  0  0  0  0  0  0
   74.0842   42.1337   39.9925 O   0  0  0  0  0  0  0  0  0  0  0  0
   73.1937   40.0880   39.6236 N   0  0  0  0  0  0  0  0  0  0  0  0
   73.2185   38.7499   39.3128 C   0  0  0  0  0  0  0  0  0  0  0  0
   72.1939   38.0960   39.2071 O   0  0  0  0  0  0  0  0  0  0  0  0
   74.5815   38.1520   39.0572 C   0  0  0  0  0  0  0  0  0  0  0  0
   75.6594   38.9004   39.8213 C   0  0  0  0  0  0  0  0  0  0  0  0
   79.5540   41.7603   44.5125 H   0  0  0  0  0  0  0  0  0  0  0  0
   78.3236   40.7830   43.7762 H   0  0  0  0  0  0  0  0  0  0  0  0
   78.9009   44.6457   39.3982 H   0  0  0  0  0  0  0  0  0  0  0  0
   80.3721   45.2057   41.3361 H   0  0  0  0  0  0  0  0  0  0  0  0
   80.3432   43.8357   43.3726 H   0  0  0  0  0  0  0  0  0  0  0  0
   75.7608   40.4748   38.3539 H   0  0  0  0  0  0  0  0  0  0  0  0
   72.2784   40.4898   39.7845 H   0  0  0  0  0  0  0  0  0  0  0  0
   74.5668   37.1039   39.3728 H   0  0  0  0  0  0  0  0  0  0  0  0
   74.7682   38.1786   37.9792 H   0  0  0  0  0  0  0  0  0  0  0  0
   75.4746   38.7729   40.8919 H   0  0  0  0  0  0  0  0  0  0  0  0
   76.6441   38.4695   39.6136 H   0  0  0  0  0  0  0  0  0  0  0  0
  1  2  1  0  0  0  0
  1 21  1  0  0  0  0
  1 22  1  0  0  0  0
  2  3  1  0  0  0  0
  2 12  2  0  0  0  0
  3  9  2  0  0  0  0
  3  4  1  0  0  0  0
  4  5  2  0  0  0  0
  4  6  1  0  0  0  0
  6  7  1  0  0  0  0
 13  6  1  0  0  0  0
  7  8  2  0  0  0  0
  7  9  1  0  0  0  0
  9 10  1  0  0  0  0
 10 23  1  0  0  0  0
 10 11  2  0  0  0  0
 11 12  1  0  0  0  0
 11 24  1  0  0  0  0
 12 25  1  0  0  0  0
 13 26  1  0  0  0  0
 13 14  1  0  0  0  0
 13 20  1  0  0  0  0
 14 15  2  0  0  0  0
 14 16  1  0  0  0  0
 16 27  1  0  0  0  0
 16 17  1  0  0  0  0
 17 18  2  0  0  0  0
 17 19  1  0  0  0  0
 19 28  1  0  0  0  0
 19 29  1  0  0  0  0
 19 20  1  0  0  0  0
 20 30  1  0  0  0  0
 20 31  1  0  0  0  0
M  ZZC   1 n1
M  ZZC   2 c1
M  ZZC   3 c2
M  ZZC   4 c3
M  ZZC   5 o1
M  ZZC   6 n2
M  ZZC   7 c4
M  ZZC   8 o2
M  ZZC   9 c5
M  ZZC  10 c6
M  ZZC  11 c7
M  ZZC  12 c8
M  ZZC  13 c9
M  ZZC  14 c10
M  ZZC  15 o3
M  ZZC  16 n3
M  ZZC  17 c11
M  ZZC  18 o4
M  ZZC  19 c12
M  ZZC  20 c13
M  ZZC  21 h11
M  ZZC  22 h12
M  ZZC  23 h61
M  ZZC  24 h71
M  ZZC  25 h81
M  ZZC  26 h91
M  ZZC  27 h31
M  ZZC  28 h121
M  ZZC  29 h122
M  ZZC  30 h131
M  ZZC  31 h132
M  ZZM   1 40
M  ZZI   1 224
M  ZZM   2 37
M  ZZI   2 124
M  ZZM   3 37
M  ZZI   3 124
M  ZZM   4 3
M  ZZI   4 121
M  ZZM   5 7
M  ZZI   5 81
M  ZZM   6 10
M  ZZI   6 192
M  ZZM   7 3
M  ZZI   7 121
M  ZZM   8 7
M  ZZI   8 81
M  ZZM   9 37
M  ZZI   9 124
M  ZZM  10 37
M  ZZI  10 125
M  ZZM  11 37
M  ZZI  11 125
M  ZZM  12 37
M  ZZI  12 125
M  ZZM  13 1
M  ZZI  13 113
M  ZZM  14 3
M  ZZI  14 121
M  ZZM  15 7
M  ZZI  15 81
M  ZZM  16 10
M  ZZI  16 191
M  ZZM  17 3
M  ZZI  17 121
M  ZZM  18 7
M  ZZI  18 81
M  ZZM  19 1
M  ZZI  19 112
M  ZZM  20 1
M  ZZI  20 112
M  ZZM  21 28
M  ZZI  21 11
M  ZZM  22 28
M  ZZI  22 11
M  ZZM  23 5
M  ZZI  23 1
M  ZZM  24 5
M  ZZI  24 1
M  ZZM  25 5
M  ZZI  25 1
M  ZZM  26 5
M  ZZI  26 1
M  ZZM  27 28
M  ZZI  27 11
M  ZZM  28 5
M  ZZI  28 1
M  ZZM  29 5
M  ZZI  29 1
M  ZZM  30 5
M  ZZI  30 1
M  ZZM  31 5
M  ZZI  31 1
M  END
> <IX>
1

> <NAME>
Cereblon_4MXO_9.pdb

> <Score>
-18.240251

> <Natom>
31

> <Nflex>
1

> <Hbond>
-3.698701

> <Hphob>
-3.560536

> <VwInt>
-24.240133

> <Dsolv>
15.178549

> <SolEl>
7.185294

> <Eintl>
1.694916

> <RecConf>
ND

> <projPath>
Cereblon_maps/

> <NAME_>
Cereblon_4MXO_9.pdb

$$$$
