Cereblon_5MO4_5.pdb
  MOLSOFT 04032206263D

 31 33  0  0  1  0  0  0  0  0999 V2000
   76.8755   41.5658   40.9106 N   0  0  0  0  0  0  0  0  0  0  0  0
   76.4329   40.3149   40.4554 C   0  0  0  0  0  0  0  0  0  0  0  0
   75.3418   40.1695   39.6107 C   0  0  0  0  0  0  0  0  0  0  0  0
   74.4877   41.1839   38.9901 C   0  0  0  0  0  0  0  0  0  0  0  0
   74.5439   42.3689   39.2872 O   0  0  0  0  0  0  0  0  0  0  0  0
   73.6491   40.5097   38.1184 N   0  0  0  0  0  0  0  0  0  0  0  0
   73.8283   39.1464   38.2337 C   0  0  0  0  0  0  0  0  0  0  0  0
   73.2362   38.2343   37.6749 O   0  0  0  0  0  0  0  0  0  0  0  0
   74.9153   38.9476   39.1878 C   0  0  0  0  0  0  0  0  0  0  0  0
   75.4935   37.7702   39.6230 C   0  0  0  0  0  0  0  0  0  0  0  0
   76.5476   37.8861   40.5189 C   0  0  0  0  0  0  0  0  0  0  0  0
   77.0019   39.1379   40.9322 C   0  0  0  0  0  0  0  0  0  0  0  0
   72.6214   41.0907   37.2415 C   0  0  1  0  0  0  0  0  0  0  0  0
   71.3236   41.3103   38.0108 C   0  0  0  0  0  0  0  0  0  0  0  0
   71.0126   40.6660   39.0019 O   0  0  0  0  0  0  0  0  0  0  0  0
   70.4560   42.2293   37.4669 N   0  0  0  0  0  0  0  0  0  0  0  0
   70.6513   43.0759   36.4076 C   0  0  0  0  0  0  0  0  0  0  0  0
   69.8218   43.9228   36.1130 O   0  0  0  0  0  0  0  0  0  0  0  0
   71.9319   42.8765   35.6357 C   0  0  0  0  0  0  0  0  0  0  0  0
   73.0520   42.3735   36.5339 C   0  0  0  0  0  0  0  0  0  0  0  0
   77.8140   41.6231   41.2996 H   0  0  0  0  0  0  0  0  0  0  0  0
   76.5287   42.3939   40.4264 H   0  0  0  0  0  0  0  0  0  0  0  0
   75.1430   36.8007   39.2812 H   0  0  0  0  0  0  0  0  0  0  0  0
   77.0287   36.9902   40.8991 H   0  0  0  0  0  0  0  0  0  0  0  0
   77.8262   39.1918   41.6364 H   0  0  0  0  0  0  0  0  0  0  0  0
   72.3866   40.3378   36.4799 H   0  0  0  0  0  0  0  0  0  0  0  0
   69.5828   42.3585   37.9566 H   0  0  0  0  0  0  0  0  0  0  0  0
   71.7368   42.1747   34.8179 H   0  0  0  0  0  0  0  0  0  0  0  0
   72.2154   43.8372   35.2010 H   0  0  0  0  0  0  0  0  0  0  0  0
   73.9540   42.1946   35.9400 H   0  0  0  0  0  0  0  0  0  0  0  0
   73.3043   43.1545   37.2558 H   0  0  0  0  0  0  0  0  0  0  0  0
  1  2  1  0  0  0  0
  1 21  1  0  0  0  0
  1 22  1  0  0  0  0
  2  3  1  0  0  0  0
  2 12  2  0  0  0  0
  3  9  2  0  0  0  0
  3  4  1  0  0  0  0
  4  5  2  0  0  0  0
  4  6  1  0  0  0  0
  6  7  1  0  0  0  0
 13  6  1  0  0  0  0
  7  8  2  0  0  0  0
  7  9  1  0  0  0  0
  9 10  1  0  0  0  0
 10 23  1  0  0  0  0
 10 11  2  0  0  0  0
 11 12  1  0  0  0  0
 11 24  1  0  0  0  0
 12 25  1  0  0  0  0
 13 26  1  0  0  0  0
 13 14  1  0  0  0  0
 13 20  1  0  0  0  0
 14 15  2  0  0  0  0
 14 16  1  0  0  0  0
 16 27  1  0  0  0  0
 16 17  1  0  0  0  0
 17 18  2  0  0  0  0
 17 19  1  0  0  0  0
 19 28  1  0  0  0  0
 19 29  1  0  0  0  0
 19 20  1  0  0  0  0
 20 30  1  0  0  0  0
 20 31  1  0  0  0  0
M  ZZC   1 n1
M  ZZC   2 c1
M  ZZC   3 c2
M  ZZC   4 c3
M  ZZC   5 o1
M  ZZC   6 n2
M  ZZC   7 c4
M  ZZC   8 o2
M  ZZC   9 c5
M  ZZC  10 c6
M  ZZC  11 c7
M  ZZC  12 c8
M  ZZC  13 c9
M  ZZC  14 c10
M  ZZC  15 o3
M  ZZC  16 n3
M  ZZC  17 c11
M  ZZC  18 o4
M  ZZC  19 c12
M  ZZC  20 c13
M  ZZC  21 h11
M  ZZC  22 h12
M  ZZC  23 h61
M  ZZC  24 h71
M  ZZC  25 h81
M  ZZC  26 h91
M  ZZC  27 h31
M  ZZC  28 h121
M  ZZC  29 h122
M  ZZC  30 h131
M  ZZC  31 h132
M  ZZM   1 40
M  ZZI   1 224
M  ZZM   2 37
M  ZZI   2 124
M  ZZM   3 37
M  ZZI   3 124
M  ZZM   4 3
M  ZZI   4 121
M  ZZM   5 7
M  ZZI   5 81
M  ZZM   6 10
M  ZZI   6 192
M  ZZM   7 3
M  ZZI   7 121
M  ZZM   8 7
M  ZZI   8 81
M  ZZM   9 37
M  ZZI   9 124
M  ZZM  10 37
M  ZZI  10 125
M  ZZM  11 37
M  ZZI  11 125
M  ZZM  12 37
M  ZZI  12 125
M  ZZM  13 1
M  ZZI  13 113
M  ZZM  14 3
M  ZZI  14 121
M  ZZM  15 7
M  ZZI  15 81
M  ZZM  16 10
M  ZZI  16 191
M  ZZM  17 3
M  ZZI  17 121
M  ZZM  18 7
M  ZZI  18 81
M  ZZM  19 1
M  ZZI  19 112
M  ZZM  20 1
M  ZZI  20 112
M  ZZM  21 28
M  ZZI  21 11
M  ZZM  22 28
M  ZZI  22 11
M  ZZM  23 5
M  ZZI  23 1
M  ZZM  24 5
M  ZZI  24 1
M  ZZM  25 5
M  ZZI  25 1
M  ZZM  26 5
M  ZZI  26 1
M  ZZM  27 28
M  ZZI  27 11
M  ZZM  28 5
M  ZZI  28 1
M  ZZM  29 5
M  ZZI  29 1
M  ZZM  30 5
M  ZZI  30 1
M  ZZM  31 5
M  ZZI  31 1
M  END
> <IX>
1

> <NAME>
Cereblon_5MO4_5.pdb

> <Score>
-19.431128

> <Natom>
31

> <Nflex>
1

> <Hbond>
-4.890149

> <Hphob>
-3.387798

> <VwInt>
-24.194505

> <Dsolv>
15.964112

> <SolEl>
9.116013

> <Eintl>
1.359379

> <RecConf>
ND

> <projPath>
Cereblon_maps/

> <NAME_>
Cereblon_5MO4_5.pdb

$$$$
