Cereblon_4QNQ_48.pdb
  MOLSOFT 04032206243D

 31 33  0  0  1  0  0  0  0  0999 V2000
   76.7309   41.9998   40.4762 N   0  0  0  0  0  0  0  0  0  0  0  0
   76.3235   40.6895   40.1817 C   0  0  0  0  0  0  0  0  0  0  0  0
   75.2261   40.4204   39.3826 C   0  0  0  0  0  0  0  0  0  0  0  0
   74.3456   41.3508   38.6870 C   0  0  0  0  0  0  0  0  0  0  0  0
   74.4033   42.5606   38.8488 O   0  0  0  0  0  0  0  0  0  0  0  0
   73.4834   40.5835   37.9264 N   0  0  0  0  0  0  0  0  0  0  0  0
   73.6954   39.2399   38.1651 C   0  0  0  0  0  0  0  0  0  0  0  0
   73.1051   38.2678   37.7169 O   0  0  0  0  0  0  0  0  0  0  0  0
   74.8151   39.1552   39.1012 C   0  0  0  0  0  0  0  0  0  0  0  0
   75.4322   38.0468   39.6498 C   0  0  0  0  0  0  0  0  0  0  0  0
   76.4996   38.2867   40.5069 C   0  0  0  0  0  0  0  0  0  0  0  0
   76.9298   39.5868   40.7752 C   0  0  0  0  0  0  0  0  0  0  0  0
   72.3992   41.0779   37.0656 C   0  0  1  0  0  0  0  0  0  0  0  0
   71.1538   41.3404   37.9064 C   0  0  0  0  0  0  0  0  0  0  0  0
   70.8922   40.7223   38.9279 O   0  0  0  0  0  0  0  0  0  0  0  0
   70.2701   42.2645   37.3999 N   0  0  0  0  0  0  0  0  0  0  0  0
   70.3872   43.0455   36.2815 C   0  0  0  0  0  0  0  0  0  0  0  0
   69.5662   43.9131   36.0285 O   0  0  0  0  0  0  0  0  0  0  0  0
   71.5722   42.7440   35.4001 C   0  0  0  0  0  0  0  0  0  0  0  0
   72.7637   42.3119   36.2393 C   0  0  0  0  0  0  0  0  0  0  0  0
   77.6675   42.1328   40.8524 H   0  0  0  0  0  0  0  0  0  0  0  0
   76.3442   42.7567   39.9121 H   0  0  0  0  0  0  0  0  0  0  0  0
   75.0989   37.0379   39.4250 H   0  0  0  0  0  0  0  0  0  0  0  0
   77.0096   37.4490   40.9727 H   0  0  0  0  0  0  0  0  0  0  0  0
   77.7643   39.7376   41.4528 H   0  0  0  0  0  0  0  0  0  0  0  0
   72.1298   40.2641   36.3822 H   0  0  0  0  0  0  0  0  0  0  0  0
   69.4428   42.4354   37.9525 H   0  0  0  0  0  0  0  0  0  0  0  0
   71.2857   41.9653   34.6854 H   0  0  0  0  0  0  0  0  0  0  0  0
   71.8200   43.6468   34.8369 H   0  0  0  0  0  0  0  0  0  0  0  0
   73.6206   42.0946   35.5939 H   0  0  0  0  0  0  0  0  0  0  0  0
   73.0568   43.1474   36.8821 H   0  0  0  0  0  0  0  0  0  0  0  0
  1  2  1  0  0  0  0
  1 21  1  0  0  0  0
  1 22  1  0  0  0  0
  2  3  1  0  0  0  0
  2 12  2  0  0  0  0
  3  9  2  0  0  0  0
  3  4  1  0  0  0  0
  4  5  2  0  0  0  0
  4  6  1  0  0  0  0
  6  7  1  0  0  0  0
 13  6  1  0  0  0  0
  7  8  2  0  0  0  0
  7  9  1  0  0  0  0
  9 10  1  0  0  0  0
 10 23  1  0  0  0  0
 10 11  2  0  0  0  0
 11 12  1  0  0  0  0
 11 24  1  0  0  0  0
 12 25  1  0  0  0  0
 13 26  1  0  0  0  0
 13 14  1  0  0  0  0
 13 20  1  0  0  0  0
 14 15  2  0  0  0  0
 14 16  1  0  0  0  0
 16 27  1  0  0  0  0
 16 17  1  0  0  0  0
 17 18  2  0  0  0  0
 17 19  1  0  0  0  0
 19 28  1  0  0  0  0
 19 29  1  0  0  0  0
 19 20  1  0  0  0  0
 20 30  1  0  0  0  0
 20 31  1  0  0  0  0
M  ZZC   1 n1
M  ZZC   2 c1
M  ZZC   3 c2
M  ZZC   4 c3
M  ZZC   5 o1
M  ZZC   6 n2
M  ZZC   7 c4
M  ZZC   8 o2
M  ZZC   9 c5
M  ZZC  10 c6
M  ZZC  11 c7
M  ZZC  12 c8
M  ZZC  13 c9
M  ZZC  14 c10
M  ZZC  15 o3
M  ZZC  16 n3
M  ZZC  17 c11
M  ZZC  18 o4
M  ZZC  19 c12
M  ZZC  20 c13
M  ZZC  21 h11
M  ZZC  22 h12
M  ZZC  23 h61
M  ZZC  24 h71
M  ZZC  25 h81
M  ZZC  26 h91
M  ZZC  27 h31
M  ZZC  28 h121
M  ZZC  29 h122
M  ZZC  30 h131
M  ZZC  31 h132
M  ZZM   1 40
M  ZZI   1 224
M  ZZM   2 37
M  ZZI   2 124
M  ZZM   3 37
M  ZZI   3 124
M  ZZM   4 3
M  ZZI   4 121
M  ZZM   5 7
M  ZZI   5 81
M  ZZM   6 10
M  ZZI   6 192
M  ZZM   7 3
M  ZZI   7 121
M  ZZM   8 7
M  ZZI   8 81
M  ZZM   9 37
M  ZZI   9 124
M  ZZM  10 37
M  ZZI  10 125
M  ZZM  11 37
M  ZZI  11 125
M  ZZM  12 37
M  ZZI  12 125
M  ZZM  13 1
M  ZZI  13 113
M  ZZM  14 3
M  ZZI  14 121
M  ZZM  15 7
M  ZZI  15 81
M  ZZM  16 10
M  ZZI  16 191
M  ZZM  17 3
M  ZZI  17 121
M  ZZM  18 7
M  ZZI  18 81
M  ZZM  19 1
M  ZZI  19 112
M  ZZM  20 1
M  ZZI  20 112
M  ZZM  21 28
M  ZZI  21 11
M  ZZM  22 28
M  ZZI  22 11
M  ZZM  23 5
M  ZZI  23 1
M  ZZM  24 5
M  ZZI  24 1
M  ZZM  25 5
M  ZZI  25 1
M  ZZM  26 5
M  ZZI  26 1
M  ZZM  27 28
M  ZZI  27 11
M  ZZM  28 5
M  ZZI  28 1
M  ZZM  29 5
M  ZZI  29 1
M  ZZM  30 5
M  ZZI  30 1
M  ZZM  31 5
M  ZZI  31 1
M  END
> <IX>
1

> <NAME>
Cereblon_4QNQ_48.pdb

> <Score>
-19.597772

> <Natom>
31

> <Nflex>
1

> <Hbond>
-4.818103

> <Hphob>
-3.591328

> <VwInt>
-25.276586

> <Dsolv>
16.010521

> <SolEl>
10.365787

> <Eintl>
1.375826

> <RecConf>
ND

> <projPath>
Cereblon_maps/

> <NAME_>
Cereblon_4QNQ_48.pdb

$$$$
