Cereblon_3K6P_13.pdb
  MOLSOFT 04032206213D

 31 33  0  0  1  0  0  0  0  0999 V2000
   77.4567   41.9586   41.6627 N   0  0  0  0  0  0  0  0  0  0  0  0
   77.1618   40.6482   41.2575 C   0  0  0  0  0  0  0  0  0  0  0  0
   76.1697   40.3399   40.3332 C   0  0  0  0  0  0  0  0  0  0  0  0
   75.2521   41.2083   39.5863 C   0  0  0  0  0  0  0  0  0  0  0  0
   75.1830   42.4173   39.7478 O   0  0  0  0  0  0  0  0  0  0  0  0
   74.5015   40.3862   38.7688 N   0  0  0  0  0  0  0  0  0  0  0  0
   74.8222   39.0636   38.9856 C   0  0  0  0  0  0  0  0  0  0  0  0
   74.3464   38.0567   38.4805 O   0  0  0  0  0  0  0  0  0  0  0  0
   75.8942   39.0520   39.9799 C   0  0  0  0  0  0  0  0  0  0  0  0
   76.5627   37.9722   40.5252 C   0  0  0  0  0  0  0  0  0  0  0  0
   77.5251   38.2524   41.4830 C   0  0  0  0  0  0  0  0  0  0  0  0
   77.8058   39.5665   41.8501 C   0  0  0  0  0  0  0  0  0  0  0  0
   73.4492   40.8025   37.8301 C   0  0  1  0  0  0  0  0  0  0  0  0
   72.1338   41.0136   38.5687 C   0  0  0  0  0  0  0  0  0  0  0  0
   71.8620   40.4706   39.6298 O   0  0  0  0  0  0  0  0  0  0  0  0
   71.2145   41.8109   37.9252 N   0  0  0  0  0  0  0  0  0  0  0  0
   71.3495   42.5130   36.7509 C   0  0  0  0  0  0  0  0  0  0  0  0
   70.4553   43.2221   36.3134 O   0  0  0  0  0  0  0  0  0  0  0  0
   72.6686   42.3488   36.0352 C   0  0  0  0  0  0  0  0  0  0  0  0
   73.7906   42.0479   37.0148 C   0  0  0  0  0  0  0  0  0  0  0  0
   78.2766   42.1316   42.2402 H   0  0  0  0  0  0  0  0  0  0  0  0
   77.0677   42.7452   41.1412 H   0  0  0  0  0  0  0  0  0  0  0  0
   76.3332   36.9506   40.2393 H   0  0  0  0  0  0  0  0  0  0  0  0
   78.0621   37.4378   41.9591 H   0  0  0  0  0  0  0  0  0  0  0  0
   78.5512   39.7454   42.6185 H   0  0  0  0  0  0  0  0  0  0  0  0
   73.2750   39.9658   37.1436 H   0  0  0  0  0  0  0  0  0  0  0  0
   70.3383   41.9406   38.4081 H   0  0  0  0  0  0  0  0  0  0  0  0
   72.5638   41.5459   35.2979 H   0  0  0  0  0  0  0  0  0  0  0  0
   72.8861   43.2768   35.4984 H   0  0  0  0  0  0  0  0  0  0  0  0
   74.7289   41.9078   36.4724 H   0  0  0  0  0  0  0  0  0  0  0  0
   73.9359   42.9158   37.6635 H   0  0  0  0  0  0  0  0  0  0  0  0
  1  2  1  0  0  0  0
  1 21  1  0  0  0  0
  1 22  1  0  0  0  0
  2  3  1  0  0  0  0
  2 12  2  0  0  0  0
  3  9  2  0  0  0  0
  3  4  1  0  0  0  0
  4  5  2  0  0  0  0
  4  6  1  0  0  0  0
  6  7  1  0  0  0  0
 13  6  1  0  0  0  0
  7  8  2  0  0  0  0
  7  9  1  0  0  0  0
  9 10  1  0  0  0  0
 10 23  1  0  0  0  0
 10 11  2  0  0  0  0
 11 12  1  0  0  0  0
 11 24  1  0  0  0  0
 12 25  1  0  0  0  0
 13 26  1  0  0  0  0
 13 14  1  0  0  0  0
 13 20  1  0  0  0  0
 14 15  2  0  0  0  0
 14 16  1  0  0  0  0
 16 27  1  0  0  0  0
 16 17  1  0  0  0  0
 17 18  2  0  0  0  0
 17 19  1  0  0  0  0
 19 28  1  0  0  0  0
 19 29  1  0  0  0  0
 19 20  1  0  0  0  0
 20 30  1  0  0  0  0
 20 31  1  0  0  0  0
M  ZZC   1 n1
M  ZZC   2 c1
M  ZZC   3 c2
M  ZZC   4 c3
M  ZZC   5 o1
M  ZZC   6 n2
M  ZZC   7 c4
M  ZZC   8 o2
M  ZZC   9 c5
M  ZZC  10 c6
M  ZZC  11 c7
M  ZZC  12 c8
M  ZZC  13 c9
M  ZZC  14 c10
M  ZZC  15 o3
M  ZZC  16 n3
M  ZZC  17 c11
M  ZZC  18 o4
M  ZZC  19 c12
M  ZZC  20 c13
M  ZZC  21 h11
M  ZZC  22 h12
M  ZZC  23 h61
M  ZZC  24 h71
M  ZZC  25 h81
M  ZZC  26 h91
M  ZZC  27 h31
M  ZZC  28 h121
M  ZZC  29 h122
M  ZZC  30 h131
M  ZZC  31 h132
M  ZZM   1 40
M  ZZI   1 224
M  ZZM   2 37
M  ZZI   2 124
M  ZZM   3 37
M  ZZI   3 124
M  ZZM   4 3
M  ZZI   4 121
M  ZZM   5 7
M  ZZI   5 81
M  ZZM   6 10
M  ZZI   6 192
M  ZZM   7 3
M  ZZI   7 121
M  ZZM   8 7
M  ZZI   8 81
M  ZZM   9 37
M  ZZI   9 124
M  ZZM  10 37
M  ZZI  10 125
M  ZZM  11 37
M  ZZI  11 125
M  ZZM  12 37
M  ZZI  12 125
M  ZZM  13 1
M  ZZI  13 113
M  ZZM  14 3
M  ZZI  14 121
M  ZZM  15 7
M  ZZI  15 81
M  ZZM  16 10
M  ZZI  16 191
M  ZZM  17 3
M  ZZI  17 121
M  ZZM  18 7
M  ZZI  18 81
M  ZZM  19 1
M  ZZI  19 112
M  ZZM  20 1
M  ZZI  20 112
M  ZZM  21 28
M  ZZI  21 11
M  ZZM  22 28
M  ZZI  22 11
M  ZZM  23 5
M  ZZI  23 1
M  ZZM  24 5
M  ZZI  24 1
M  ZZM  25 5
M  ZZI  25 1
M  ZZM  26 5
M  ZZI  26 1
M  ZZM  27 28
M  ZZI  27 11
M  ZZM  28 5
M  ZZI  28 1
M  ZZM  29 5
M  ZZI  29 1
M  ZZM  30 5
M  ZZI  30 1
M  ZZM  31 5
M  ZZI  31 1
M  END
> <IX>
1

> <NAME>
Cereblon_3K6P_13.pdb

> <Score>
-15.341192

> <Natom>
31

> <Nflex>
1

> <Hbond>
-3.30325

> <Hphob>
-3.630552

> <VwInt>
-23.755299

> <Dsolv>
16.509337

> <SolEl>
8.743276

> <Eintl>
0.752056

> <RecConf>
ND

> <projPath>
Cereblon_maps/

> <NAME_>
Cereblon_3K6P_13.pdb

$$$$
