Cereblon_4XUF_4.pdb
  MOLSOFT 04032206243D

 31 33  0  0  1  0  0  0  0  0999 V2000
   78.7217   41.7145   43.8956 N   0  0  0  0  0  0  0  0  0  0  0  0
   78.7919   42.4912   42.7283 C   0  0  0  0  0  0  0  0  0  0  0  0
   78.0705   42.1722   41.5900 C   0  0  0  0  0  0  0  0  0  0  0  0
   77.1599   41.0570   41.3679 C   0  0  0  0  0  0  0  0  0  0  0  0
   76.9478   40.1906   42.2027 O   0  0  0  0  0  0  0  0  0  0  0  0
   76.6610   41.2054   40.0893 N   0  0  0  0  0  0  0  0  0  0  0  0
   77.1975   42.3196   39.4773 C   0  0  0  0  0  0  0  0  0  0  0  0
   76.9993   42.7388   38.3443 O   0  0  0  0  0  0  0  0  0  0  0  0
   78.1109   42.9197   40.4520 C   0  0  0  0  0  0  0  0  0  0  0  0
   78.9332   44.0220   40.3391 C   0  0  0  0  0  0  0  0  0  0  0  0
   79.7228   44.3297   41.4413 C   0  0  0  0  0  0  0  0  0  0  0  0
   79.6547   43.5775   42.6161 C   0  0  0  0  0  0  0  0  0  0  0  0
   75.6480   40.3693   39.4413 C   0  0  2  0  0  0  0  0  0  0  0  0
   74.2756   40.9556   39.7288 C   0  0  0  0  0  0  0  0  0  0  0  0
   74.1085   42.1374   39.9802 O   0  0  0  0  0  0  0  0  0  0  0  0
   73.2119   40.0952   39.6074 N   0  0  0  0  0  0  0  0  0  0  0  0
   73.2333   38.7558   39.3027 C   0  0  0  0  0  0  0  0  0  0  0  0
   72.2064   38.1072   39.1873 O   0  0  0  0  0  0  0  0  0  0  0  0
   74.5956   38.1486   39.0672 C   0  0  0  0  0  0  0  0  0  0  0  0
   75.6717   38.8962   39.8351 C   0  0  0  0  0  0  0  0  0  0  0  0
   78.9838   42.1286   44.7891 H   0  0  0  0  0  0  0  0  0  0  0  0
   78.0642   40.9329   43.9132 H   0  0  0  0  0  0  0  0  0  0  0  0
   78.9632   44.6113   39.4303 H   0  0  0  0  0  0  0  0  0  0  0  0
   80.3971   45.1775   41.3933 H   0  0  0  0  0  0  0  0  0  0  0  0
   80.2843   43.8507   43.4574 H   0  0  0  0  0  0  0  0  0  0  0  0
   75.7963   40.4652   38.3645 H   0  0  0  0  0  0  0  0  0  0  0  0
   72.2970   40.5025   39.7565 H   0  0  0  0  0  0  0  0  0  0  0  0
   74.5720   37.1030   39.3901 H   0  0  0  0  0  0  0  0  0  0  0  0
   74.7920   38.1662   37.9908 H   0  0  0  0  0  0  0  0  0  0  0  0
   76.6560   38.4608   39.6351 H   0  0  0  0  0  0  0  0  0  0  0  0
   75.4800   38.7725   40.9048 H   0  0  0  0  0  0  0  0  0  0  0  0
  1  2  1  0  0  0  0
  1 21  1  0  0  0  0
  1 22  1  0  0  0  0
  2  3  1  0  0  0  0
  2 12  2  0  0  0  0
  3  9  2  0  0  0  0
  3  4  1  0  0  0  0
  4  5  2  0  0  0  0
  4  6  1  0  0  0  0
  6  7  1  0  0  0  0
 13  6  1  0  0  0  0
  7  8  2  0  0  0  0
  7  9  1  0  0  0  0
  9 10  1  0  0  0  0
 10 23  1  0  0  0  0
 10 11  2  0  0  0  0
 11 12  1  0  0  0  0
 11 24  1  0  0  0  0
 12 25  1  0  0  0  0
 13 26  1  0  0  0  0
 13 14  1  0  0  0  0
 13 20  1  0  0  0  0
 14 15  2  0  0  0  0
 14 16  1  0  0  0  0
 16 27  1  0  0  0  0
 16 17  1  0  0  0  0
 17 18  2  0  0  0  0
 17 19  1  0  0  0  0
 19 28  1  0  0  0  0
 19 29  1  0  0  0  0
 19 20  1  0  0  0  0
 20 30  1  0  0  0  0
 20 31  1  0  0  0  0
M  ZZC   1 n1
M  ZZC   2 c1
M  ZZC   3 c2
M  ZZC   4 c3
M  ZZC   5 o1
M  ZZC   6 n2
M  ZZC   7 c4
M  ZZC   8 o2
M  ZZC   9 c5
M  ZZC  10 c6
M  ZZC  11 c7
M  ZZC  12 c8
M  ZZC  13 c9
M  ZZC  14 c10
M  ZZC  15 o3
M  ZZC  16 n3
M  ZZC  17 c11
M  ZZC  18 o4
M  ZZC  19 c12
M  ZZC  20 c13
M  ZZC  21 h11
M  ZZC  22 h12
M  ZZC  23 h61
M  ZZC  24 h71
M  ZZC  25 h81
M  ZZC  26 h91
M  ZZC  27 h31
M  ZZC  28 h121
M  ZZC  29 h122
M  ZZC  30 h131
M  ZZC  31 h132
M  ZZM   1 40
M  ZZI   1 224
M  ZZM   2 37
M  ZZI   2 124
M  ZZM   3 37
M  ZZI   3 124
M  ZZM   4 3
M  ZZI   4 121
M  ZZM   5 7
M  ZZI   5 81
M  ZZM   6 10
M  ZZI   6 192
M  ZZM   7 3
M  ZZI   7 121
M  ZZM   8 7
M  ZZI   8 81
M  ZZM   9 37
M  ZZI   9 124
M  ZZM  10 37
M  ZZI  10 125
M  ZZM  11 37
M  ZZI  11 125
M  ZZM  12 37
M  ZZI  12 125
M  ZZM  13 1
M  ZZI  13 113
M  ZZM  14 3
M  ZZI  14 121
M  ZZM  15 7
M  ZZI  15 81
M  ZZM  16 10
M  ZZI  16 191
M  ZZM  17 3
M  ZZI  17 121
M  ZZM  18 7
M  ZZI  18 81
M  ZZM  19 1
M  ZZI  19 112
M  ZZM  20 1
M  ZZI  20 112
M  ZZM  21 28
M  ZZI  21 11
M  ZZM  22 28
M  ZZI  22 11
M  ZZM  23 5
M  ZZI  23 1
M  ZZM  24 5
M  ZZI  24 1
M  ZZM  25 5
M  ZZI  25 1
M  ZZM  26 5
M  ZZI  26 1
M  ZZM  27 28
M  ZZI  27 11
M  ZZM  28 5
M  ZZI  28 1
M  ZZM  29 5
M  ZZI  29 1
M  ZZM  30 5
M  ZZI  30 1
M  ZZM  31 5
M  ZZI  31 1
M  END
> <IX>
1

> <NAME>
Cereblon_4XUF_4.pdb

> <Score>
-21.580706

> <Natom>
31

> <Nflex>
1

> <Hbond>
-4.830776

> <Hphob>
-3.570623

> <VwInt>
-24.054246

> <Dsolv>
15.037805

> <SolEl>
6.174317

> <Eintl>
1.89053

> <RecConf>
ND

> <projPath>
Cereblon_maps/

> <NAME_>
Cereblon_4XUF_4.pdb

$$$$
