Cereblon_5TOB_4.pdb
  MOLSOFT 04032206263D

 31 33  0  0  1  0  0  0  0  0999 V2000
   78.8149   41.6836   43.8111 N   0  0  0  0  0  0  0  0  0  0  0  0
   78.8983   42.4344   42.6286 C   0  0  0  0  0  0  0  0  0  0  0  0
   78.0962   42.1632   41.5332 C   0  0  0  0  0  0  0  0  0  0  0  0
   77.1756   41.0520   41.3283 C   0  0  0  0  0  0  0  0  0  0  0  0
   76.9917   40.1730   42.1573 O   0  0  0  0  0  0  0  0  0  0  0  0
   76.6427   41.2126   40.0647 N   0  0  0  0  0  0  0  0  0  0  0  0
   77.1642   42.3319   39.4483 C   0  0  0  0  0  0  0  0  0  0  0  0
   76.9530   42.7513   38.3178 O   0  0  0  0  0  0  0  0  0  0  0  0
   78.0945   42.9298   40.4076 C   0  0  0  0  0  0  0  0  0  0  0  0
   78.9066   44.0386   40.2845 C   0  0  0  0  0  0  0  0  0  0  0  0
   79.7238   44.3396   41.3677 C   0  0  0  0  0  0  0  0  0  0  0  0
   79.7104   43.5597   42.5256 C   0  0  0  0  0  0  0  0  0  0  0  0
   75.6235   40.3746   39.4296 C   0  0  2  0  0  0  0  0  0  0  0  0
   74.2522   40.9532   39.7334 C   0  0  0  0  0  0  0  0  0  0  0  0
   74.0819   42.1331   39.9914 O   0  0  0  0  0  0  0  0  0  0  0  0
   73.1915   40.0883   39.6167 N   0  0  0  0  0  0  0  0  0  0  0  0
   73.2166   38.7508   39.3038 C   0  0  0  0  0  0  0  0  0  0  0  0
   72.1916   38.0987   39.1904 O   0  0  0  0  0  0  0  0  0  0  0  0
   74.5805   38.1502   39.0572 C   0  0  0  0  0  0  0  0  0  0  0  0
   75.6570   38.9007   39.8211 C   0  0  0  0  0  0  0  0  0  0  0  0
   79.5290   41.7888   44.5288 H   0  0  0  0  0  0  0  0  0  0  0  0
   78.2862   40.8098   43.7926 H   0  0  0  0  0  0  0  0  0  0  0  0
   78.8999   44.6440   39.3858 H   0  0  0  0  0  0  0  0  0  0  0  0
   80.3748   45.2054   41.3199 H   0  0  0  0  0  0  0  0  0  0  0  0
   80.3456   43.8404   43.3602 H   0  0  0  0  0  0  0  0  0  0  0  0
   75.7579   40.4723   38.3511 H   0  0  0  0  0  0  0  0  0  0  0  0
   72.2759   40.4906   39.7751 H   0  0  0  0  0  0  0  0  0  0  0  0
   74.5637   37.1034   39.3770 H   0  0  0  0  0  0  0  0  0  0  0  0
   74.7714   38.1721   37.9797 H   0  0  0  0  0  0  0  0  0  0  0  0
   75.4713   38.7743   40.8917 H   0  0  0  0  0  0  0  0  0  0  0  0
   76.6421   38.4699   39.6150 H   0  0  0  0  0  0  0  0  0  0  0  0
  1  2  1  0  0  0  0
  1 21  1  0  0  0  0
  1 22  1  0  0  0  0
  2  3  1  0  0  0  0
  2 12  2  0  0  0  0
  3  9  2  0  0  0  0
  3  4  1  0  0  0  0
  4  5  2  0  0  0  0
  4  6  1  0  0  0  0
  6  7  1  0  0  0  0
 13  6  1  0  0  0  0
  7  8  2  0  0  0  0
  7  9  1  0  0  0  0
  9 10  1  0  0  0  0
 10 23  1  0  0  0  0
 10 11  2  0  0  0  0
 11 12  1  0  0  0  0
 11 24  1  0  0  0  0
 12 25  1  0  0  0  0
 13 26  1  0  0  0  0
 13 14  1  0  0  0  0
 13 20  1  0  0  0  0
 14 15  2  0  0  0  0
 14 16  1  0  0  0  0
 16 27  1  0  0  0  0
 16 17  1  0  0  0  0
 17 18  2  0  0  0  0
 17 19  1  0  0  0  0
 19 28  1  0  0  0  0
 19 29  1  0  0  0  0
 19 20  1  0  0  0  0
 20 30  1  0  0  0  0
 20 31  1  0  0  0  0
M  ZZC   1 n1
M  ZZC   2 c1
M  ZZC   3 c2
M  ZZC   4 c3
M  ZZC   5 o1
M  ZZC   6 n2
M  ZZC   7 c4
M  ZZC   8 o2
M  ZZC   9 c5
M  ZZC  10 c6
M  ZZC  11 c7
M  ZZC  12 c8
M  ZZC  13 c9
M  ZZC  14 c10
M  ZZC  15 o3
M  ZZC  16 n3
M  ZZC  17 c11
M  ZZC  18 o4
M  ZZC  19 c12
M  ZZC  20 c13
M  ZZC  21 h11
M  ZZC  22 h12
M  ZZC  23 h61
M  ZZC  24 h71
M  ZZC  25 h81
M  ZZC  26 h91
M  ZZC  27 h31
M  ZZC  28 h121
M  ZZC  29 h122
M  ZZC  30 h131
M  ZZC  31 h132
M  ZZM   1 40
M  ZZI   1 224
M  ZZM   2 37
M  ZZI   2 124
M  ZZM   3 37
M  ZZI   3 124
M  ZZM   4 3
M  ZZI   4 121
M  ZZM   5 7
M  ZZI   5 81
M  ZZM   6 10
M  ZZI   6 192
M  ZZM   7 3
M  ZZI   7 121
M  ZZM   8 7
M  ZZI   8 81
M  ZZM   9 37
M  ZZI   9 124
M  ZZM  10 37
M  ZZI  10 125
M  ZZM  11 37
M  ZZI  11 125
M  ZZM  12 37
M  ZZI  12 125
M  ZZM  13 1
M  ZZI  13 113
M  ZZM  14 3
M  ZZI  14 121
M  ZZM  15 7
M  ZZI  15 81
M  ZZM  16 10
M  ZZI  16 191
M  ZZM  17 3
M  ZZI  17 121
M  ZZM  18 7
M  ZZI  18 81
M  ZZM  19 1
M  ZZI  19 112
M  ZZM  20 1
M  ZZI  20 112
M  ZZM  21 28
M  ZZI  21 11
M  ZZM  22 28
M  ZZI  22 11
M  ZZM  23 5
M  ZZI  23 1
M  ZZM  24 5
M  ZZI  24 1
M  ZZM  25 5
M  ZZI  25 1
M  ZZM  26 5
M  ZZI  26 1
M  ZZM  27 28
M  ZZI  27 11
M  ZZM  28 5
M  ZZI  28 1
M  ZZM  29 5
M  ZZI  29 1
M  ZZM  30 5
M  ZZI  30 1
M  ZZM  31 5
M  ZZI  31 1
M  END
> <IX>
1

> <NAME>
Cereblon_5TOB_4.pdb

> <Score>
-18.464012

> <Natom>
31

> <Nflex>
1

> <Hbond>
-3.697711

> <Hphob>
-3.54942

> <VwInt>
-24.211816

> <Dsolv>
15.200488

> <SolEl>
6.784831

> <Eintl>
1.671281

> <RecConf>
ND

> <projPath>
Cereblon_maps/

> <NAME_>
Cereblon_5TOB_4.pdb

$$$$
