Cereblon_4IPF_9.pdb
  MOLSOFT 04032206223D

 30 32  0  0  1  0  0  0  0  0999 V2000
   77.8087   41.3337   42.1490 C   0  0  0  0  0  0  0  0  0  0  0  0
   77.1291   41.3434   40.9404 C   0  0  0  0  0  0  0  0  0  0  0  0
   77.3934   42.3069   40.0050 C   0  0  0  0  0  0  0  0  0  0  0  0
   76.5117   42.0795   38.8521 C   0  0  0  0  0  0  0  0  0  0  0  0
   76.5168   42.7446   37.8258 O   0  0  0  0  0  0  0  0  0  0  0  0
   75.6936   41.0134   39.1792 N   0  0  0  0  0  0  0  0  0  0  0  0
   74.3993   40.7685   38.5205 C   0  0  2  0  0  0  0  0  0  0  0  0
   73.3300   41.5470   39.2643 C   0  0  0  0  0  0  0  0  0  0  0  0
   73.5998   42.4346   40.0549 O   0  0  0  0  0  0  0  0  0  0  0  0
   72.0296   41.2240   38.9632 N   0  0  0  0  0  0  0  0  0  0  0  0
   71.5747   40.1659   38.2151 C   0  0  0  0  0  0  0  0  0  0  0  0
   70.3852   40.0238   37.9700 O   0  0  0  0  0  0  0  0  0  0  0  0
   72.6417   39.2278   37.6834 C   0  0  0  0  0  0  0  0  0  0  0  0
   73.9446   39.3152   38.4737 C   0  0  0  0  0  0  0  0  0  0  0  0
   76.0636   40.4291   40.4551 C   0  0  0  0  0  0  0  0  0  0  0  0
   78.3367   43.3025   40.1999 C   0  0  0  0  0  0  0  0  0  0  0  0
   79.0342   43.2877   41.4012 C   0  0  0  0  0  0  0  0  0  0  0  0
   78.7652   42.3183   42.3669 C   0  0  0  0  0  0  0  0  0  0  0  0
   77.6025   40.5862   42.9093 H   0  0  0  0  0  0  0  0  0  0  0  0
   74.4443   41.1998   37.5138 H   0  0  0  0  0  0  0  0  0  0  0  0
   71.3255   41.8400   39.3509 H   0  0  0  0  0  0  0  0  0  0  0  0
   72.2544   38.2049   37.7245 H   0  0  0  0  0  0  0  0  0  0  0  0
   72.8149   39.4798   36.6315 H   0  0  0  0  0  0  0  0  0  0  0  0
   73.7860   38.9300   39.4879 H   0  0  0  0  0  0  0  0  0  0  0  0
   74.7065   38.6797   38.0139 H   0  0  0  0  0  0  0  0  0  0  0  0
   76.4268   39.4077   40.2983 H   0  0  0  0  0  0  0  0  0  0  0  0
   75.2049   40.4463   41.1197 H   0  0  0  0  0  0  0  0  0  0  0  0
   78.5235   44.0633   39.4493 H   0  0  0  0  0  0  0  0  0  0  0  0
   79.7825   44.0493   41.5966 H   0  0  0  0  0  0  0  0  0  0  0  0
   79.3102   42.3324   43.3058 H   0  0  0  0  0  0  0  0  0  0  0  0
  1 19  1  0  0  0  0
  1 18  2  0  0  0  0
  1  2  1  0  0  0  0
  2  3  2  0  0  0  0
  2 15  1  0  0  0  0
  3 16  1  0  0  0  0
  3  4  1  0  0  0  0
  4  6  1  0  0  0  0
  4  5  2  0  0  0  0
  6 15  1  0  0  0  0
  7  6  1  0  0  0  0
  7 20  1  0  0  0  0
  7  8  1  0  0  0  0
  7 14  1  0  0  0  0
  8  9  2  0  0  0  0
  8 10  1  0  0  0  0
 10 21  1  0  0  0  0
 10 11  1  0  0  0  0
 11 12  2  0  0  0  0
 11 13  1  0  0  0  0
 13 22  1  0  0  0  0
 13 23  1  0  0  0  0
 13 14  1  0  0  0  0
 14 24  1  0  0  0  0
 14 25  1  0  0  0  0
 15 26  1  0  0  0  0
 15 27  1  0  0  0  0
 16 17  2  0  0  0  0
 16 28  1  0  0  0  0
 17 18  1  0  0  0  0
 17 29  1  0  0  0  0
 18 30  1  0  0  0  0
M  ZZC   1 c1
M  ZZC   2 c2
M  ZZC   3 c3
M  ZZC   4 c4
M  ZZC   5 o1
M  ZZC   6 n1
M  ZZC   7 c5
M  ZZC   8 c6
M  ZZC   9 o2
M  ZZC  10 n2
M  ZZC  11 c7
M  ZZC  12 o3
M  ZZC  13 c8
M  ZZC  14 c9
M  ZZC  15 c10
M  ZZC  16 c11
M  ZZC  17 c12
M  ZZC  18 c13
M  ZZC  19 h11
M  ZZC  20 h51
M  ZZC  21 h21
M  ZZC  22 h81
M  ZZC  23 h82
M  ZZC  24 h91
M  ZZC  25 h92
M  ZZC  26 h101
M  ZZC  27 h102
M  ZZC  28 h111
M  ZZC  29 h121
M  ZZC  30 h131
M  ZZM   1 37
M  ZZI   1 125
M  ZZM   2 37
M  ZZI   2 124
M  ZZM   3 37
M  ZZI   3 124
M  ZZM   4 3
M  ZZI   4 121
M  ZZM   5 7
M  ZZI   5 81
M  ZZM   6 10
M  ZZI   6 192
M  ZZM   7 1
M  ZZI   7 113
M  ZZM   8 3
M  ZZI   8 121
M  ZZM   9 7
M  ZZI   9 81
M  ZZM  10 10
M  ZZI  10 191
M  ZZM  11 3
M  ZZI  11 121
M  ZZM  12 7
M  ZZI  12 81
M  ZZM  13 1
M  ZZI  13 112
M  ZZM  14 1
M  ZZI  14 112
M  ZZM  15 1
M  ZZI  15 112
M  ZZM  16 37
M  ZZI  16 125
M  ZZM  17 37
M  ZZI  17 125
M  ZZM  18 37
M  ZZI  18 125
M  ZZM  19 5
M  ZZI  19 1
M  ZZM  20 5
M  ZZI  20 1
M  ZZM  21 28
M  ZZI  21 11
M  ZZM  22 5
M  ZZI  22 1
M  ZZM  23 5
M  ZZI  23 1
M  ZZM  24 5
M  ZZI  24 1
M  ZZM  25 5
M  ZZI  25 1
M  ZZM  26 5
M  ZZI  26 1
M  ZZM  27 5
M  ZZI  27 1
M  ZZM  28 5
M  ZZI  28 1
M  ZZM  29 5
M  ZZI  29 1
M  ZZM  30 5
M  ZZI  30 1
M  END
> <IX>
1

> <NAME>
Cereblon_4IPF_9.pdb

> <Score>
-16.143851

> <Natom>
30

> <Nflex>
1

> <Hbond>
-4.236371

> <Hphob>
-3.71775

> <VwInt>
-19.363834

> <Dsolv>
13.845524

> <SolEl>
5.135805

> <Eintl>
3.425199

> <RecConf>
ND

> <projPath>
Cereblon_maps/

> <NAME_>
Cereblon_4IPF_9.pdb

$$$$
