Cereblon_5HZN_6.pdb
  MOLSOFT 04032206253D

 31 33  0  0  1  0  0  0  0  0999 V2000
   78.8132   41.6778   43.8175 N   0  0  0  0  0  0  0  0  0  0  0  0
   78.9059   42.4233   42.6317 C   0  0  0  0  0  0  0  0  0  0  0  0
   78.1004   42.1577   41.5372 C   0  0  0  0  0  0  0  0  0  0  0  0
   77.1783   41.0480   41.3308 C   0  0  0  0  0  0  0  0  0  0  0  0
   76.9948   40.1671   42.1578 O   0  0  0  0  0  0  0  0  0  0  0  0
   76.6457   41.2113   40.0675 N   0  0  0  0  0  0  0  0  0  0  0  0
   77.1668   42.3319   39.4535 C   0  0  0  0  0  0  0  0  0  0  0  0
   76.9541   42.7544   38.3244 O   0  0  0  0  0  0  0  0  0  0  0  0
   78.0973   42.9279   40.4136 C   0  0  0  0  0  0  0  0  0  0  0  0
   78.9080   44.0378   40.2936 C   0  0  0  0  0  0  0  0  0  0  0  0
   79.7237   44.3376   41.3785 C   0  0  0  0  0  0  0  0  0  0  0  0
   79.7107   43.5544   42.5344 C   0  0  0  0  0  0  0  0  0  0  0  0
   75.6253   40.3751   39.4317 C   0  0  2  0  0  0  0  0  0  0  0  0
   74.2542   40.9545   39.7355 C   0  0  0  0  0  0  0  0  0  0  0  0
   74.0843   42.1352   39.9910 O   0  0  0  0  0  0  0  0  0  0  0  0
   73.1931   40.0892   39.6241 N   0  0  0  0  0  0  0  0  0  0  0  0
   73.2175   38.7509   39.3139 C   0  0  0  0  0  0  0  0  0  0  0  0
   72.1927   38.0968   39.2100 O   0  0  0  0  0  0  0  0  0  0  0  0
   74.5801   38.1528   39.0567 C   0  0  0  0  0  0  0  0  0  0  0  0
   75.6577   38.9008   39.8216 C   0  0  0  0  0  0  0  0  0  0  0  0
   79.5545   41.7551   44.5104 H   0  0  0  0  0  0  0  0  0  0  0  0
   78.3068   40.7917   43.7808 H   0  0  0  0  0  0  0  0  0  0  0  0
   78.9018   44.6449   39.3960 H   0  0  0  0  0  0  0  0  0  0  0  0
   80.3716   45.2061   41.3347 H   0  0  0  0  0  0  0  0  0  0  0  0
   80.3414   43.8371   43.3718 H   0  0  0  0  0  0  0  0  0  0  0  0
   75.7599   40.4744   38.3533 H   0  0  0  0  0  0  0  0  0  0  0  0
   72.2780   40.4915   39.7852 H   0  0  0  0  0  0  0  0  0  0  0  0
   74.5658   37.1043   39.3706 H   0  0  0  0  0  0  0  0  0  0  0  0
   74.7668   38.1815   37.9787 H   0  0  0  0  0  0  0  0  0  0  0  0
   75.4711   38.7738   40.8919 H   0  0  0  0  0  0  0  0  0  0  0  0
   76.6423   38.4682   39.6167 H   0  0  0  0  0  0  0  0  0  0  0  0
  1  2  1  0  0  0  0
  1 21  1  0  0  0  0
  1 22  1  0  0  0  0
  2  3  1  0  0  0  0
  2 12  2  0  0  0  0
  3  9  2  0  0  0  0
  3  4  1  0  0  0  0
  4  5  2  0  0  0  0
  4  6  1  0  0  0  0
  6  7  1  0  0  0  0
 13  6  1  0  0  0  0
  7  8  2  0  0  0  0
  7  9  1  0  0  0  0
  9 10  1  0  0  0  0
 10 23  1  0  0  0  0
 10 11  2  0  0  0  0
 11 12  1  0  0  0  0
 11 24  1  0  0  0  0
 12 25  1  0  0  0  0
 13 26  1  0  0  0  0
 13 14  1  0  0  0  0
 13 20  1  0  0  0  0
 14 15  2  0  0  0  0
 14 16  1  0  0  0  0
 16 27  1  0  0  0  0
 16 17  1  0  0  0  0
 17 18  2  0  0  0  0
 17 19  1  0  0  0  0
 19 28  1  0  0  0  0
 19 29  1  0  0  0  0
 19 20  1  0  0  0  0
 20 30  1  0  0  0  0
 20 31  1  0  0  0  0
M  ZZC   1 n1
M  ZZC   2 c1
M  ZZC   3 c2
M  ZZC   4 c3
M  ZZC   5 o1
M  ZZC   6 n2
M  ZZC   7 c4
M  ZZC   8 o2
M  ZZC   9 c5
M  ZZC  10 c6
M  ZZC  11 c7
M  ZZC  12 c8
M  ZZC  13 c9
M  ZZC  14 c10
M  ZZC  15 o3
M  ZZC  16 n3
M  ZZC  17 c11
M  ZZC  18 o4
M  ZZC  19 c12
M  ZZC  20 c13
M  ZZC  21 h11
M  ZZC  22 h12
M  ZZC  23 h61
M  ZZC  24 h71
M  ZZC  25 h81
M  ZZC  26 h91
M  ZZC  27 h31
M  ZZC  28 h121
M  ZZC  29 h122
M  ZZC  30 h131
M  ZZC  31 h132
M  ZZM   1 40
M  ZZI   1 224
M  ZZM   2 37
M  ZZI   2 124
M  ZZM   3 37
M  ZZI   3 124
M  ZZM   4 3
M  ZZI   4 121
M  ZZM   5 7
M  ZZI   5 81
M  ZZM   6 10
M  ZZI   6 192
M  ZZM   7 3
M  ZZI   7 121
M  ZZM   8 7
M  ZZI   8 81
M  ZZM   9 37
M  ZZI   9 124
M  ZZM  10 37
M  ZZI  10 125
M  ZZM  11 37
M  ZZI  11 125
M  ZZM  12 37
M  ZZI  12 125
M  ZZM  13 1
M  ZZI  13 113
M  ZZM  14 3
M  ZZI  14 121
M  ZZM  15 7
M  ZZI  15 81
M  ZZM  16 10
M  ZZI  16 191
M  ZZM  17 3
M  ZZI  17 121
M  ZZM  18 7
M  ZZI  18 81
M  ZZM  19 1
M  ZZI  19 112
M  ZZM  20 1
M  ZZI  20 112
M  ZZM  21 28
M  ZZI  21 11
M  ZZM  22 28
M  ZZI  22 11
M  ZZM  23 5
M  ZZI  23 1
M  ZZM  24 5
M  ZZI  24 1
M  ZZM  25 5
M  ZZI  25 1
M  ZZM  26 5
M  ZZI  26 1
M  ZZM  27 28
M  ZZI  27 11
M  ZZM  28 5
M  ZZI  28 1
M  ZZM  29 5
M  ZZI  29 1
M  ZZM  30 5
M  ZZI  30 1
M  ZZM  31 5
M  ZZI  31 1
M  END
> <IX>
1

> <NAME>
Cereblon_5HZN_6.pdb

> <Score>
-18.299064

> <Natom>
31

> <Nflex>
1

> <Hbond>
-3.717458

> <Hphob>
-3.54283

> <VwInt>
-24.187076

> <Dsolv>
15.211736

> <SolEl>
7.044473

> <Eintl>
1.681206

> <RecConf>
ND

> <projPath>
Cereblon_maps/

> <NAME_>
Cereblon_5HZN_6.pdb

$$$$
