Cereblon_3UE4_8.pdb
  MOLSOFT 04032206233D

 29 31  0  0  1  0  0  0  0  0999 V2000
   79.0063   42.4906   42.6723 C   0  0  0  0  0  0  0  0  0  0  0  0
   78.1861   42.1961   41.5976 C   0  0  0  0  0  0  0  0  0  0  0  0
   77.2682   41.0781   41.4126 C   0  0  0  0  0  0  0  0  0  0  0  0
   77.0882   40.2179   42.2609 O   0  0  0  0  0  0  0  0  0  0  0  0
   76.7272   41.2202   40.1479 N   0  0  0  0  0  0  0  0  0  0  0  0
   77.2227   42.3475   39.5247 C   0  0  0  0  0  0  0  0  0  0  0  0
   76.9872   42.7649   38.3981 O   0  0  0  0  0  0  0  0  0  0  0  0
   78.1582   42.9589   40.4691 C   0  0  0  0  0  0  0  0  0  0  0  0
   78.9574   44.0746   40.3259 C   0  0  0  0  0  0  0  0  0  0  0  0
   79.8008   44.3841   41.3871 C   0  0  0  0  0  0  0  0  0  0  0  0
   79.8255   43.6058   42.5449 C   0  0  0  0  0  0  0  0  0  0  0  0
   75.7199   40.3645   39.5150 C   0  0  2  0  0  0  0  0  0  0  0  0
   74.3394   40.9320   39.8032 C   0  0  0  0  0  0  0  0  0  0  0  0
   74.1514   42.1184   40.0161 O   0  0  0  0  0  0  0  0  0  0  0  0
   73.2898   40.0492   39.7281 N   0  0  0  0  0  0  0  0  0  0  0  0
   73.3291   38.7033   39.4579 C   0  0  0  0  0  0  0  0  0  0  0  0
   72.3141   38.0285   39.4031 O   0  0  0  0  0  0  0  0  0  0  0  0
   74.6941   38.1230   39.1809 C   0  0  0  0  0  0  0  0  0  0  0  0
   75.7759   38.8940   39.9167 C   0  0  0  0  0  0  0  0  0  0  0  0
   79.0187   41.8755   43.5679 H   0  0  0  0  0  0  0  0  0  0  0  0
   78.9263   44.6755   39.4247 H   0  0  0  0  0  0  0  0  0  0  0  0
   80.4505   45.2487   41.3162 H   0  0  0  0  0  0  0  0  0  0  0  0
   80.4947   43.8735   43.3577 H   0  0  0  0  0  0  0  0  0  0  0  0
   75.8595   40.4523   38.4356 H   0  0  0  0  0  0  0  0  0  0  0  0
   72.3712   40.4424   39.8914 H   0  0  0  0  0  0  0  0  0  0  0  0
   74.7012   37.0773   39.5050 H   0  0  0  0  0  0  0  0  0  0  0  0
   74.8540   38.1453   38.0985 H   0  0  0  0  0  0  0  0  0  0  0  0
   76.7617   38.4737   39.6930 H   0  0  0  0  0  0  0  0  0  0  0  0
   75.6145   38.7743   40.9918 H   0  0  0  0  0  0  0  0  0  0  0  0
  1 20  1  0  0  0  0
  1  2  1  0  0  0  0
  1 11  2  0  0  0  0
  2  3  1  0  0  0  0
  2  8  2  0  0  0  0
  3  4  2  0  0  0  0
  3  5  1  0  0  0  0
  5  6  1  0  0  0  0
 12  5  1  0  0  0  0
  6  7  2  0  0  0  0
  6  8  1  0  0  0  0
  8  9  1  0  0  0  0
  9 21  1  0  0  0  0
  9 10  2  0  0  0  0
 10 22  1  0  0  0  0
 10 11  1  0  0  0  0
 11 23  1  0  0  0  0
 12 24  1  0  0  0  0
 12 13  1  0  0  0  0
 12 19  1  0  0  0  0
 13 14  2  0  0  0  0
 13 15  1  0  0  0  0
 15 25  1  0  0  0  0
 15 16  1  0  0  0  0
 16 17  2  0  0  0  0
 16 18  1  0  0  0  0
 18 26  1  0  0  0  0
 18 27  1  0  0  0  0
 18 19  1  0  0  0  0
 19 28  1  0  0  0  0
 19 29  1  0  0  0  0
M  ZZC   1 c1
M  ZZC   2 c2
M  ZZC   3 c3
M  ZZC   4 o1
M  ZZC   5 n1
M  ZZC   6 c4
M  ZZC   7 o2
M  ZZC   8 c5
M  ZZC   9 c6
M  ZZC  10 c7
M  ZZC  11 c8
M  ZZC  12 c9
M  ZZC  13 c10
M  ZZC  14 o3
M  ZZC  15 n2
M  ZZC  16 c11
M  ZZC  17 o4
M  ZZC  18 c12
M  ZZC  19 c13
M  ZZC  20 h11
M  ZZC  21 h61
M  ZZC  22 h71
M  ZZC  23 h81
M  ZZC  24 h91
M  ZZC  25 h21
M  ZZC  26 h121
M  ZZC  27 h122
M  ZZC  28 h131
M  ZZC  29 h132
M  ZZM   1 37
M  ZZI   1 125
M  ZZM   2 37
M  ZZI   2 124
M  ZZM   3 3
M  ZZI   3 121
M  ZZM   4 7
M  ZZI   4 81
M  ZZM   5 10
M  ZZI   5 192
M  ZZM   6 3
M  ZZI   6 121
M  ZZM   7 7
M  ZZI   7 81
M  ZZM   8 37
M  ZZI   8 124
M  ZZM   9 37
M  ZZI   9 125
M  ZZM  10 37
M  ZZI  10 125
M  ZZM  11 37
M  ZZI  11 125
M  ZZM  12 1
M  ZZI  12 113
M  ZZM  13 3
M  ZZI  13 121
M  ZZM  14 7
M  ZZI  14 81
M  ZZM  15 10
M  ZZI  15 191
M  ZZM  16 3
M  ZZI  16 121
M  ZZM  17 7
M  ZZI  17 81
M  ZZM  18 1
M  ZZI  18 112
M  ZZM  19 1
M  ZZI  19 112
M  ZZM  20 5
M  ZZI  20 1
M  ZZM  21 5
M  ZZI  21 1
M  ZZM  22 5
M  ZZI  22 1
M  ZZM  23 5
M  ZZI  23 1
M  ZZM  24 5
M  ZZI  24 1
M  ZZM  25 28
M  ZZI  25 11
M  ZZM  26 5
M  ZZI  26 1
M  ZZM  27 5
M  ZZI  27 1
M  ZZM  28 5
M  ZZI  28 1
M  ZZM  29 5
M  ZZI  29 1
M  END
> <IX>
1

> <NAME>
Cereblon_3UE4_8.pdb

> <Score>
-19.428723

> <Natom>
29

> <Nflex>
1

> <Hbond>
-3.368998

> <Hphob>
-3.54636

> <VwInt>
-22.715558

> <Dsolv>
11.987066

> <SolEl>
5.602182

> <Eintl>
1.497869

> <RecConf>
ND

> <projPath>
Cereblon_maps/

> <NAME_>
Cereblon_3UE4_8.pdb

$$$$
