Cereblon_3MXF_21.pdb
  MOLSOFT 04032206223D

 29 31  0  0  1  0  0  0  0  0999 V2000
   79.0004   42.4873   42.6744 C   0  0  0  0  0  0  0  0  0  0  0  0
   78.1841   42.1924   41.5971 C   0  0  0  0  0  0  0  0  0  0  0  0
   77.2663   41.0747   41.4101 C   0  0  0  0  0  0  0  0  0  0  0  0
   77.0845   40.2139   42.2575 O   0  0  0  0  0  0  0  0  0  0  0  0
   76.7261   41.2180   40.1451 N   0  0  0  0  0  0  0  0  0  0  0  0
   77.2228   42.3461   39.5232 C   0  0  0  0  0  0  0  0  0  0  0  0
   76.9885   42.7655   38.3973 O   0  0  0  0  0  0  0  0  0  0  0  0
   78.1577   42.9562   40.4691 C   0  0  0  0  0  0  0  0  0  0  0  0
   78.9564   44.0728   40.3283 C   0  0  0  0  0  0  0  0  0  0  0  0
   79.7976   44.3821   41.3908 C   0  0  0  0  0  0  0  0  0  0  0  0
   79.8199   43.6034   42.5490 C   0  0  0  0  0  0  0  0  0  0  0  0
   75.7180   40.3646   39.5115 C   0  0  2  0  0  0  0  0  0  0  0  0
   74.3380   40.9336   39.8001 C   0  0  0  0  0  0  0  0  0  0  0  0
   74.1508   42.1197   40.0152 O   0  0  0  0  0  0  0  0  0  0  0  0
   73.2877   40.0522   39.7245 N   0  0  0  0  0  0  0  0  0  0  0  0
   73.3255   38.7067   39.4523 C   0  0  0  0  0  0  0  0  0  0  0  0
   72.3094   38.0337   39.3948 O   0  0  0  0  0  0  0  0  0  0  0  0
   74.6898   38.1246   39.1753 C   0  0  0  0  0  0  0  0  0  0  0  0
   75.7719   38.8940   39.9123 C   0  0  0  0  0  0  0  0  0  0  0  0
   79.0103   41.8712   43.5693 H   0  0  0  0  0  0  0  0  0  0  0  0
   78.9265   44.6744   39.4272 H   0  0  0  0  0  0  0  0  0  0  0  0
   80.4460   45.2479   41.3222 H   0  0  0  0  0  0  0  0  0  0  0  0
   80.4863   43.8711   43.3643 H   0  0  0  0  0  0  0  0  0  0  0  0
   75.8569   40.4533   38.4315 H   0  0  0  0  0  0  0  0  0  0  0  0
   72.3694   40.4462   39.8878 H   0  0  0  0  0  0  0  0  0  0  0  0
   74.6954   37.0785   39.4988 H   0  0  0  0  0  0  0  0  0  0  0  0
   74.8515   38.1475   38.0931 H   0  0  0  0  0  0  0  0  0  0  0  0
   76.7574   38.4721   39.6880 H   0  0  0  0  0  0  0  0  0  0  0  0
   75.6090   38.7740   40.9869 H   0  0  0  0  0  0  0  0  0  0  0  0
  1 20  1  0  0  0  0
  1  2  1  0  0  0  0
  1 11  2  0  0  0  0
  2  3  1  0  0  0  0
  2  8  2  0  0  0  0
  3  4  2  0  0  0  0
  3  5  1  0  0  0  0
  5  6  1  0  0  0  0
 12  5  1  0  0  0  0
  6  7  2  0  0  0  0
  6  8  1  0  0  0  0
  8  9  1  0  0  0  0
  9 21  1  0  0  0  0
  9 10  2  0  0  0  0
 10 22  1  0  0  0  0
 10 11  1  0  0  0  0
 11 23  1  0  0  0  0
 12 24  1  0  0  0  0
 12 13  1  0  0  0  0
 12 19  1  0  0  0  0
 13 14  2  0  0  0  0
 13 15  1  0  0  0  0
 15 25  1  0  0  0  0
 15 16  1  0  0  0  0
 16 17  2  0  0  0  0
 16 18  1  0  0  0  0
 18 26  1  0  0  0  0
 18 27  1  0  0  0  0
 18 19  1  0  0  0  0
 19 28  1  0  0  0  0
 19 29  1  0  0  0  0
M  ZZC   1 c1
M  ZZC   2 c2
M  ZZC   3 c3
M  ZZC   4 o1
M  ZZC   5 n1
M  ZZC   6 c4
M  ZZC   7 o2
M  ZZC   8 c5
M  ZZC   9 c6
M  ZZC  10 c7
M  ZZC  11 c8
M  ZZC  12 c9
M  ZZC  13 c10
M  ZZC  14 o3
M  ZZC  15 n2
M  ZZC  16 c11
M  ZZC  17 o4
M  ZZC  18 c12
M  ZZC  19 c13
M  ZZC  20 h11
M  ZZC  21 h61
M  ZZC  22 h71
M  ZZC  23 h81
M  ZZC  24 h91
M  ZZC  25 h21
M  ZZC  26 h121
M  ZZC  27 h122
M  ZZC  28 h131
M  ZZC  29 h132
M  ZZM   1 37
M  ZZI   1 125
M  ZZM   2 37
M  ZZI   2 124
M  ZZM   3 3
M  ZZI   3 121
M  ZZM   4 7
M  ZZI   4 81
M  ZZM   5 10
M  ZZI   5 192
M  ZZM   6 3
M  ZZI   6 121
M  ZZM   7 7
M  ZZI   7 81
M  ZZM   8 37
M  ZZI   8 124
M  ZZM   9 37
M  ZZI   9 125
M  ZZM  10 37
M  ZZI  10 125
M  ZZM  11 37
M  ZZI  11 125
M  ZZM  12 1
M  ZZI  12 113
M  ZZM  13 3
M  ZZI  13 121
M  ZZM  14 7
M  ZZI  14 81
M  ZZM  15 10
M  ZZI  15 191
M  ZZM  16 3
M  ZZI  16 121
M  ZZM  17 7
M  ZZI  17 81
M  ZZM  18 1
M  ZZI  18 112
M  ZZM  19 1
M  ZZI  19 112
M  ZZM  20 5
M  ZZI  20 1
M  ZZM  21 5
M  ZZI  21 1
M  ZZM  22 5
M  ZZI  22 1
M  ZZM  23 5
M  ZZI  23 1
M  ZZM  24 5
M  ZZI  24 1
M  ZZM  25 28
M  ZZI  25 11
M  ZZM  26 5
M  ZZI  26 1
M  ZZM  27 5
M  ZZI  27 1
M  ZZM  28 5
M  ZZI  28 1
M  ZZM  29 5
M  ZZI  29 1
M  END
> <IX>
1

> <NAME>
Cereblon_3MXF_21.pdb

> <Score>
-19.414777

> <Natom>
29

> <Nflex>
1

> <Hbond>
-3.367509

> <Hphob>
-3.550443

> <VwInt>
-22.697732

> <Dsolv>
12.008957

> <SolEl>
5.593914

> <Eintl>
1.471414

> <RecConf>
ND

> <projPath>
Cereblon_maps/

> <NAME_>
Cereblon_3MXF_21.pdb

$$$$
