Cereblon_5WN8_1.pdb
  MOLSOFT 04032206283D

 30 32  0  0  1  0  0  0  0  0999 V2000
   82.4494   56.5778   19.7606 C   0  0  0  0  0  0  0  0  0  0  0  0
   81.3501   56.1915   20.5032 C   0  0  0  0  0  0  0  0  0  0  0  0
   80.9473   54.8840   20.5106 C   0  0  0  0  0  0  0  0  0  0  0  0
   79.7783   54.7726   21.3859 C   0  0  0  0  0  0  0  0  0  0  0  0
   79.1833   53.7286   21.6126 O   0  0  0  0  0  0  0  0  0  0  0  0
   79.5353   56.0418   21.8751 N   0  0  0  0  0  0  0  0  0  0  0  0
   78.4362   56.3709   22.7834 C   0  0  2  0  0  0  0  0  0  0  0  0
   77.3175   57.1279   22.0904 C   0  0  0  0  0  0  0  0  0  0  0  0
   77.1521   57.1440   20.8796 O   0  0  0  0  0  0  0  0  0  0  0  0
   76.4372   57.7471   22.9461 N   0  0  0  0  0  0  0  0  0  0  0  0
   76.4932   57.8466   24.3154 C   0  0  0  0  0  0  0  0  0  0  0  0
   75.5879   58.3499   24.9606 O   0  0  0  0  0  0  0  0  0  0  0  0
   77.7164   57.2582   24.9772 C   0  0  0  0  0  0  0  0  0  0  0  0
   78.8764   57.1707   24.0044 C   0  0  0  0  0  0  0  0  0  0  0  0
   80.4753   57.0213   21.3678 C   0  0  0  0  0  0  0  0  0  0  0  0
   81.5938   53.8903   19.7976 C   0  0  0  0  0  0  0  0  0  0  0  0
   82.6986   54.2715   19.0501 C   0  0  0  0  0  0  0  0  0  0  0  0
   83.1147   55.6008   19.0355 C   0  0  0  0  0  0  0  0  0  0  0  0
   82.7880   57.6093   19.7463 H   0  0  0  0  0  0  0  0  0  0  0  0
   77.9950   55.4244   23.1013 H   0  0  0  0  0  0  0  0  0  0  0  0
   75.6530   58.2083   22.5052 H   0  0  0  0  0  0  0  0  0  0  0  0
   77.9924   57.8845   25.8316 H   0  0  0  0  0  0  0  0  0  0  0  0
   77.4592   56.2650   25.3529 H   0  0  0  0  0  0  0  0  0  0  0  0
   79.7330   56.7004   24.4946 H   0  0  0  0  0  0  0  0  0  0  0  0
   79.1933   58.1790   23.7133 H   0  0  0  0  0  0  0  0  0  0  0  0
   81.0384   57.4607   22.1986 H   0  0  0  0  0  0  0  0  0  0  0  0
   79.9422   57.7870   20.7941 H   0  0  0  0  0  0  0  0  0  0  0  0
   81.2492   52.8607   19.8146 H   0  0  0  0  0  0  0  0  0  0  0  0
   83.2406   53.5289   18.4722 H   0  0  0  0  0  0  0  0  0  0  0  0
   83.9782   55.8886   18.4488 H   0  0  0  0  0  0  0  0  0  0  0  0
  1 19  1  0  0  0  0
  1 18  2  0  0  0  0
  1  2  1  0  0  0  0
  2  3  2  0  0  0  0
  2 15  1  0  0  0  0
  3 16  1  0  0  0  0
  3  4  1  0  0  0  0
  4  6  1  0  0  0  0
  4  5  2  0  0  0  0
  6 15  1  0  0  0  0
  7  6  1  0  0  0  0
  7 20  1  0  0  0  0
  7  8  1  0  0  0  0
  7 14  1  0  0  0  0
  8  9  2  0  0  0  0
  8 10  1  0  0  0  0
 10 21  1  0  0  0  0
 10 11  1  0  0  0  0
 11 12  2  0  0  0  0
 11 13  1  0  0  0  0
 13 22  1  0  0  0  0
 13 23  1  0  0  0  0
 13 14  1  0  0  0  0
 14 24  1  0  0  0  0
 14 25  1  0  0  0  0
 15 26  1  0  0  0  0
 15 27  1  0  0  0  0
 16 17  2  0  0  0  0
 16 28  1  0  0  0  0
 17 18  1  0  0  0  0
 17 29  1  0  0  0  0
 18 30  1  0  0  0  0
M  ZZC   1 c1
M  ZZC   2 c2
M  ZZC   3 c3
M  ZZC   4 c4
M  ZZC   5 o1
M  ZZC   6 n1
M  ZZC   7 c5
M  ZZC   8 c6
M  ZZC   9 o2
M  ZZC  10 n2
M  ZZC  11 c7
M  ZZC  12 o3
M  ZZC  13 c8
M  ZZC  14 c9
M  ZZC  15 c10
M  ZZC  16 c11
M  ZZC  17 c12
M  ZZC  18 c13
M  ZZC  19 h11
M  ZZC  20 h51
M  ZZC  21 h21
M  ZZC  22 h81
M  ZZC  23 h82
M  ZZC  24 h91
M  ZZC  25 h92
M  ZZC  26 h101
M  ZZC  27 h102
M  ZZC  28 h111
M  ZZC  29 h121
M  ZZC  30 h131
M  ZZM   1 37
M  ZZI   1 125
M  ZZM   2 37
M  ZZI   2 124
M  ZZM   3 37
M  ZZI   3 124
M  ZZM   4 3
M  ZZI   4 121
M  ZZM   5 7
M  ZZI   5 81
M  ZZM   6 10
M  ZZI   6 192
M  ZZM   7 1
M  ZZI   7 113
M  ZZM   8 3
M  ZZI   8 121
M  ZZM   9 7
M  ZZI   9 81
M  ZZM  10 10
M  ZZI  10 191
M  ZZM  11 3
M  ZZI  11 121
M  ZZM  12 7
M  ZZI  12 81
M  ZZM  13 1
M  ZZI  13 112
M  ZZM  14 1
M  ZZI  14 112
M  ZZM  15 1
M  ZZI  15 112
M  ZZM  16 37
M  ZZI  16 125
M  ZZM  17 37
M  ZZI  17 125
M  ZZM  18 37
M  ZZI  18 125
M  ZZM  19 5
M  ZZI  19 1
M  ZZM  20 5
M  ZZI  20 1
M  ZZM  21 28
M  ZZI  21 11
M  ZZM  22 5
M  ZZI  22 1
M  ZZM  23 5
M  ZZI  23 1
M  ZZM  24 5
M  ZZI  24 1
M  ZZM  25 5
M  ZZI  25 1
M  ZZM  26 5
M  ZZI  26 1
M  ZZM  27 5
M  ZZI  27 1
M  ZZM  28 5
M  ZZI  28 1
M  ZZM  29 5
M  ZZI  29 1
M  ZZM  30 5
M  ZZI  30 1
M  END
> <IX>
1

> <NAME>
Cereblon_5WN8_1.pdb

> <Score>
-18.380698

> <Natom>
30

> <Nflex>
1

> <Hbond>
-2.101387

> <Hphob>
-3.49824

> <VwInt>
-22.527933

> <Dsolv>
10.885108

> <SolEl>
3.954293

> <Eintl>
0.723167

> <RecConf>
ND

> <projPath>
Cereblon_maps/

> <NAME_>
Cereblon_5WN8_1.pdb

$$$$
