Cereblon_5ML8_1.pdb
  MOLSOFT 04032206263D

 31 33  0  0  1  0  0  0  0  0999 V2000
   78.8130   41.6766   43.8190 N   0  0  0  0  0  0  0  0  0  0  0  0
   78.9069   42.4215   42.6328 C   0  0  0  0  0  0  0  0  0  0  0  0
   78.1006   42.1569   41.5385 C   0  0  0  0  0  0  0  0  0  0  0  0
   77.1795   41.0466   41.3309 C   0  0  0  0  0  0  0  0  0  0  0  0
   76.9983   40.1637   42.1562 O   0  0  0  0  0  0  0  0  0  0  0  0
   76.6454   41.2111   40.0683 N   0  0  0  0  0  0  0  0  0  0  0  0
   77.1666   42.3322   39.4550 C   0  0  0  0  0  0  0  0  0  0  0  0
   76.9540   42.7556   38.3263 O   0  0  0  0  0  0  0  0  0  0  0  0
   78.0979   42.9271   40.4151 C   0  0  0  0  0  0  0  0  0  0  0  0
   78.9094   44.0364   40.2952 C   0  0  0  0  0  0  0  0  0  0  0  0
   79.7247   44.3365   41.3803 C   0  0  0  0  0  0  0  0  0  0  0  0
   79.7113   43.5530   42.5359 C   0  0  0  0  0  0  0  0  0  0  0  0
   75.6254   40.3754   39.4310 C   0  0  2  0  0  0  0  0  0  0  0  0
   74.2542   40.9546   39.7356 C   0  0  0  0  0  0  0  0  0  0  0  0
   74.0840   42.1347   39.9933 O   0  0  0  0  0  0  0  0  0  0  0  0
   73.1930   40.0900   39.6208 N   0  0  0  0  0  0  0  0  0  0  0  0
   73.2171   38.7522   39.3088 C   0  0  0  0  0  0  0  0  0  0  0  0
   72.1919   38.0996   39.2001 O   0  0  0  0  0  0  0  0  0  0  0  0
   74.5799   38.1525   39.0564 C   0  0  0  0  0  0  0  0  0  0  0  0
   75.6578   38.9009   39.8201 C   0  0  0  0  0  0  0  0  0  0  0  0
   79.5531   41.7597   44.5124 H   0  0  0  0  0  0  0  0  0  0  0  0
   78.3232   40.7816   43.7761 H   0  0  0  0  0  0  0  0  0  0  0  0
   78.9023   44.6447   39.3985 H   0  0  0  0  0  0  0  0  0  0  0  0
   80.3729   45.2049   41.3360 H   0  0  0  0  0  0  0  0  0  0  0  0
   80.3426   43.8351   43.3729 H   0  0  0  0  0  0  0  0  0  0  0  0
   75.7607   40.4758   38.3528 H   0  0  0  0  0  0  0  0  0  0  0  0
   72.2778   40.4923   39.7811 H   0  0  0  0  0  0  0  0  0  0  0  0
   74.5638   37.1049   39.3732 H   0  0  0  0  0  0  0  0  0  0  0  0
   74.7684   38.1775   37.9786 H   0  0  0  0  0  0  0  0  0  0  0  0
   75.4727   38.7735   40.8907 H   0  0  0  0  0  0  0  0  0  0  0  0
   76.6423   38.4693   39.6130 H   0  0  0  0  0  0  0  0  0  0  0  0
  1  2  1  0  0  0  0
  1 21  1  0  0  0  0
  1 22  1  0  0  0  0
  2  3  1  0  0  0  0
  2 12  2  0  0  0  0
  3  9  2  0  0  0  0
  3  4  1  0  0  0  0
  4  5  2  0  0  0  0
  4  6  1  0  0  0  0
  6  7  1  0  0  0  0
 13  6  1  0  0  0  0
  7  8  2  0  0  0  0
  7  9  1  0  0  0  0
  9 10  1  0  0  0  0
 10 23  1  0  0  0  0
 10 11  2  0  0  0  0
 11 12  1  0  0  0  0
 11 24  1  0  0  0  0
 12 25  1  0  0  0  0
 13 26  1  0  0  0  0
 13 14  1  0  0  0  0
 13 20  1  0  0  0  0
 14 15  2  0  0  0  0
 14 16  1  0  0  0  0
 16 27  1  0  0  0  0
 16 17  1  0  0  0  0
 17 18  2  0  0  0  0
 17 19  1  0  0  0  0
 19 28  1  0  0  0  0
 19 29  1  0  0  0  0
 19 20  1  0  0  0  0
 20 30  1  0  0  0  0
 20 31  1  0  0  0  0
M  ZZC   1 n1
M  ZZC   2 c1
M  ZZC   3 c2
M  ZZC   4 c3
M  ZZC   5 o1
M  ZZC   6 n2
M  ZZC   7 c4
M  ZZC   8 o2
M  ZZC   9 c5
M  ZZC  10 c6
M  ZZC  11 c7
M  ZZC  12 c8
M  ZZC  13 c9
M  ZZC  14 c10
M  ZZC  15 o3
M  ZZC  16 n3
M  ZZC  17 c11
M  ZZC  18 o4
M  ZZC  19 c12
M  ZZC  20 c13
M  ZZC  21 h11
M  ZZC  22 h12
M  ZZC  23 h61
M  ZZC  24 h71
M  ZZC  25 h81
M  ZZC  26 h91
M  ZZC  27 h31
M  ZZC  28 h121
M  ZZC  29 h122
M  ZZC  30 h131
M  ZZC  31 h132
M  ZZM   1 40
M  ZZI   1 224
M  ZZM   2 37
M  ZZI   2 124
M  ZZM   3 37
M  ZZI   3 124
M  ZZM   4 3
M  ZZI   4 121
M  ZZM   5 7
M  ZZI   5 81
M  ZZM   6 10
M  ZZI   6 192
M  ZZM   7 3
M  ZZI   7 121
M  ZZM   8 7
M  ZZI   8 81
M  ZZM   9 37
M  ZZI   9 124
M  ZZM  10 37
M  ZZI  10 125
M  ZZM  11 37
M  ZZI  11 125
M  ZZM  12 37
M  ZZI  12 125
M  ZZM  13 1
M  ZZI  13 113
M  ZZM  14 3
M  ZZI  14 121
M  ZZM  15 7
M  ZZI  15 81
M  ZZM  16 10
M  ZZI  16 191
M  ZZM  17 3
M  ZZI  17 121
M  ZZM  18 7
M  ZZI  18 81
M  ZZM  19 1
M  ZZI  19 112
M  ZZM  20 1
M  ZZI  20 112
M  ZZM  21 28
M  ZZI  21 11
M  ZZM  22 28
M  ZZI  22 11
M  ZZM  23 5
M  ZZI  23 1
M  ZZM  24 5
M  ZZI  24 1
M  ZZM  25 5
M  ZZI  25 1
M  ZZM  26 5
M  ZZI  26 1
M  ZZM  27 28
M  ZZI  27 11
M  ZZM  28 5
M  ZZI  28 1
M  ZZM  29 5
M  ZZI  29 1
M  ZZM  30 5
M  ZZI  30 1
M  ZZM  31 5
M  ZZI  31 1
M  END
> <IX>
1

> <NAME>
Cereblon_5ML8_1.pdb

> <Score>
-18.358396

> <Natom>
31

> <Nflex>
1

> <Hbond>
-3.706647

> <Hphob>
-3.5924

> <VwInt>
-24.209902

> <Dsolv>
15.112515

> <SolEl>
7.106918

> <Eintl>
1.685468

> <RecConf>
ND

> <projPath>
Cereblon_maps/

> <NAME_>
Cereblon_5ML8_1.pdb

$$$$
