Cereblon_3HLL_10.pdb
  MOLSOFT 04032206213D

 33 35  0  0  1  0  0  0  0  0999 V2000
   80.1523   44.6511   41.2967 N   0  0  0  0  0  0  0  0  0  0  0  0
   79.7240   43.6786   42.1595 C   0  0  0  0  0  0  0  0  0  0  0  0
   80.1798   43.5715   43.2868 O   0  0  0  0  0  0  0  0  0  0  0  0
   78.6921   42.7193   41.6662 C   0  0  0  0  0  0  0  0  0  0  0  0
   78.0508   42.8902   40.4315 C   0  0  0  0  0  0  0  0  0  0  0  0
   77.1380   41.9183   40.0700 C   0  0  0  0  0  0  0  0  0  0  0  0
   76.2981   41.8396   38.8802 C   0  0  0  0  0  0  0  0  0  0  0  0
   76.3874   42.5936   37.9214 O   0  0  0  0  0  0  0  0  0  0  0  0
   75.4368   40.7832   39.0883 N   0  0  0  0  0  0  0  0  0  0  0  0
   75.7948   40.0746   40.2164 C   0  0  0  0  0  0  0  0  0  0  0  0
   75.3470   39.0271   40.6575 O   0  0  0  0  0  0  0  0  0  0  0  0
   76.8489   40.8504   40.8641 C   0  0  0  0  0  0  0  0  0  0  0  0
   77.4446   40.6702   42.0972 C   0  0  0  0  0  0  0  0  0  0  0  0
   78.3686   41.6285   42.4933 C   0  0  0  0  0  0  0  0  0  0  0  0
   74.1734   40.6568   38.3554 C   0  0  2  0  0  0  0  0  0  0  0  0
   73.1707   41.4490   39.1748 C   0  0  0  0  0  0  0  0  0  0  0  0
   73.5175   42.2948   39.9845 O   0  0  0  0  0  0  0  0  0  0  0  0
   71.8476   41.2029   38.9066 N   0  0  0  0  0  0  0  0  0  0  0  0
   71.3188   40.2332   38.0897 C   0  0  0  0  0  0  0  0  0  0  0  0
   70.1133   40.1362   37.9221 O   0  0  0  0  0  0  0  0  0  0  0  0
   72.3161   39.3372   37.3857 C   0  0  0  0  0  0  0  0  0  0  0  0
   73.6277   39.2474   38.1528 C   0  0  0  0  0  0  0  0  0  0  0  0
   80.8516   45.3016   41.6277 H   0  0  0  0  0  0  0  0  0  0  0  0
   79.8438   44.7598   40.3402 H   0  0  0  0  0  0  0  0  0  0  0  0
   78.2259   43.7302   39.7695 H   0  0  0  0  0  0  0  0  0  0  0  0
   77.1924   39.8315   42.7391 H   0  0  0  0  0  0  0  0  0  0  0  0
   78.8459   41.5113   43.4629 H   0  0  0  0  0  0  0  0  0  0  0  0
   74.2741   41.1787   37.3962 H   0  0  0  0  0  0  0  0  0  0  0  0
   71.1871   41.8081   39.3782 H   0  0  0  0  0  0  0  0  0  0  0  0
   71.8763   38.3397   37.2864 H   0  0  0  0  0  0  0  0  0  0  0  0
   72.4812   39.7363   36.3789 H   0  0  0  0  0  0  0  0  0  0  0  0
   74.3442   38.6259   37.6078 H   0  0  0  0  0  0  0  0  0  0  0  0
   73.4411   38.7552   39.1131 H   0  0  0  0  0  0  0  0  0  0  0  0
  1  2  1  0  0  0  0
  1 23  1  0  0  0  0
  1 24  1  0  0  0  0
  2  4  1  0  0  0  0
  2  3  2  0  0  0  0
  4  5  1  0  0  0  0
  4 14  2  0  0  0  0
  5 25  1  0  0  0  0
  5  6  2  0  0  0  0
  6 12  1  0  0  0  0
  6  7  1  0  0  0  0
  7  8  2  0  0  0  0
  7  9  1  0  0  0  0
  9 10  1  0  0  0  0
 15  9  1  0  0  0  0
 10 11  2  0  0  0  0
 10 12  1  0  0  0  0
 12 13  2  0  0  0  0
 13 14  1  0  0  0  0
 13 26  1  0  0  0  0
 14 27  1  0  0  0  0
 15 28  1  0  0  0  0
 15 16  1  0  0  0  0
 15 22  1  0  0  0  0
 16 17  2  0  0  0  0
 16 18  1  0  0  0  0
 18 29  1  0  0  0  0
 18 19  1  0  0  0  0
 19 20  2  0  0  0  0
 19 21  1  0  0  0  0
 21 30  1  0  0  0  0
 21 31  1  0  0  0  0
 21 22  1  0  0  0  0
 22 32  1  0  0  0  0
 22 33  1  0  0  0  0
M  ZZC   1 n1
M  ZZC   2 c1
M  ZZC   3 o1
M  ZZC   4 c2
M  ZZC   5 c3
M  ZZC   6 c4
M  ZZC   7 c5
M  ZZC   8 o2
M  ZZC   9 n2
M  ZZC  10 c6
M  ZZC  11 o3
M  ZZC  12 c7
M  ZZC  13 c8
M  ZZC  14 c9
M  ZZC  15 c10
M  ZZC  16 c11
M  ZZC  17 o4
M  ZZC  18 n3
M  ZZC  19 c12
M  ZZC  20 o5
M  ZZC  21 c13
M  ZZC  22 c14
M  ZZC  23 h11
M  ZZC  24 h12
M  ZZC  25 h31
M  ZZC  26 h81
M  ZZC  27 h91
M  ZZC  28 h101
M  ZZC  29 h01
M  ZZC  30 h131
M  ZZC  31 h132
M  ZZC  32 h141
M  ZZC  33 h142
M  ZZM   1 10
M  ZZI   1 212
M  ZZM   2 3
M  ZZI   2 121
M  ZZM   3 7
M  ZZI   3 81
M  ZZM   4 37
M  ZZI   4 124
M  ZZM   5 37
M  ZZI   5 125
M  ZZM   6 37
M  ZZI   6 124
M  ZZM   7 3
M  ZZI   7 121
M  ZZM   8 7
M  ZZI   8 81
M  ZZM   9 10
M  ZZI   9 192
M  ZZM  10 3
M  ZZI  10 121
M  ZZM  11 7
M  ZZI  11 81
M  ZZM  12 37
M  ZZI  12 124
M  ZZM  13 37
M  ZZI  13 125
M  ZZM  14 37
M  ZZI  14 125
M  ZZM  15 1
M  ZZI  15 113
M  ZZM  16 3
M  ZZI  16 121
M  ZZM  17 7
M  ZZI  17 81
M  ZZM  18 10
M  ZZI  18 191
M  ZZM  19 3
M  ZZI  19 121
M  ZZM  20 7
M  ZZI  20 81
M  ZZM  21 1
M  ZZI  21 112
M  ZZM  22 1
M  ZZI  22 112
M  ZZM  23 28
M  ZZI  23 11
M  ZZM  24 28
M  ZZI  24 11
M  ZZM  25 5
M  ZZI  25 1
M  ZZM  26 5
M  ZZI  26 1
M  ZZM  27 5
M  ZZI  27 1
M  ZZM  28 5
M  ZZI  28 1
M  ZZM  29 28
M  ZZI  29 11
M  ZZM  30 5
M  ZZI  30 1
M  ZZM  31 5
M  ZZI  31 1
M  ZZM  32 5
M  ZZI  32 1
M  ZZM  33 5
M  ZZI  33 1
M  END
> <IX>
1

> <NAME>
Cereblon_3HLL_10.pdb

> <Score>
-14.408601

> <Natom>
33

> <Nflex>
1

> <Hbond>
-4.297925

> <Hphob>
-2.88241

> <VwInt>
-25.309824

> <Dsolv>
19.979232

> <SolEl>
7.345383

> <Eintl>
5.456353

> <RecConf>
ND

> <projPath>
Cereblon_maps/

> <NAME_>
Cereblon_3HLL_10.pdb

$$$$
