Cereblon_6VS3_29.pdb
  MOLSOFT 04032206293D

 31 33  0  0  1  0  0  0  0  0999 V2000
   78.8135   41.6786   43.8142 N   0  0  0  0  0  0  0  0  0  0  0  0
   78.9019   42.4271   42.6304 C   0  0  0  0  0  0  0  0  0  0  0  0
   78.0983   42.1593   41.5351 C   0  0  0  0  0  0  0  0  0  0  0  0
   77.1756   41.0501   41.3288 C   0  0  0  0  0  0  0  0  0  0  0  0
   76.9883   40.1705   42.1561 O   0  0  0  0  0  0  0  0  0  0  0  0
   76.6453   41.2118   40.0639 N   0  0  0  0  0  0  0  0  0  0  0  0
   77.1677   42.3319   39.4496 C   0  0  0  0  0  0  0  0  0  0  0  0
   76.9554   42.7550   38.3207 O   0  0  0  0  0  0  0  0  0  0  0  0
   78.0974   42.9275   40.4104 C   0  0  0  0  0  0  0  0  0  0  0  0
   78.9099   44.0361   40.2889 C   0  0  0  0  0  0  0  0  0  0  0  0
   79.7241   44.3380   41.3748 C   0  0  0  0  0  0  0  0  0  0  0  0
   79.7106   43.5555   42.5311 C   0  0  0  0  0  0  0  0  0  0  0  0
   75.6232   40.3770   39.4290 C   0  0  2  0  0  0  0  0  0  0  0  0
   74.2529   40.9567   39.7365 C   0  0  0  0  0  0  0  0  0  0  0  0
   74.0846   42.1373   39.9924 O   0  0  0  0  0  0  0  0  0  0  0  0
   73.1909   40.0917   39.6269 N   0  0  0  0  0  0  0  0  0  0  0  0
   73.2138   38.7536   39.3149 C   0  0  0  0  0  0  0  0  0  0  0  0
   72.1886   38.1003   39.2116 O   0  0  0  0  0  0  0  0  0  0  0  0
   74.5756   38.1547   39.0551 C   0  0  0  0  0  0  0  0  0  0  0  0
   75.6565   38.9022   39.8159 C   0  0  0  0  0  0  0  0  0  0  0  0
   79.5344   41.7781   44.5256 H   0  0  0  0  0  0  0  0  0  0  0  0
   78.3025   40.7947   43.7849 H   0  0  0  0  0  0  0  0  0  0  0  0
   78.9027   44.6424   39.3907 H   0  0  0  0  0  0  0  0  0  0  0  0
   80.3741   45.2046   41.3291 H   0  0  0  0  0  0  0  0  0  0  0  0
   80.3448   43.8358   43.3666 H   0  0  0  0  0  0  0  0  0  0  0  0
   75.7552   40.4765   38.3503 H   0  0  0  0  0  0  0  0  0  0  0  0
   72.2763   40.4940   39.7907 H   0  0  0  0  0  0  0  0  0  0  0  0
   74.5613   37.1064   39.3700 H   0  0  0  0  0  0  0  0  0  0  0  0
   74.7591   38.1819   37.9765 H   0  0  0  0  0  0  0  0  0  0  0  0
   76.6402   38.4707   39.6050 H   0  0  0  0  0  0  0  0  0  0  0  0
   75.4750   38.7742   40.8871 H   0  0  0  0  0  0  0  0  0  0  0  0
  1  2  1  0  0  0  0
  1 21  1  0  0  0  0
  1 22  1  0  0  0  0
  2  3  1  0  0  0  0
  2 12  2  0  0  0  0
  3  9  2  0  0  0  0
  3  4  1  0  0  0  0
  4  5  2  0  0  0  0
  4  6  1  0  0  0  0
  6  7  1  0  0  0  0
 13  6  1  0  0  0  0
  7  8  2  0  0  0  0
  7  9  1  0  0  0  0
  9 10  1  0  0  0  0
 10 23  1  0  0  0  0
 10 11  2  0  0  0  0
 11 12  1  0  0  0  0
 11 24  1  0  0  0  0
 12 25  1  0  0  0  0
 13 26  1  0  0  0  0
 13 14  1  0  0  0  0
 13 20  1  0  0  0  0
 14 15  2  0  0  0  0
 14 16  1  0  0  0  0
 16 27  1  0  0  0  0
 16 17  1  0  0  0  0
 17 18  2  0  0  0  0
 17 19  1  0  0  0  0
 19 28  1  0  0  0  0
 19 29  1  0  0  0  0
 19 20  1  0  0  0  0
 20 30  1  0  0  0  0
 20 31  1  0  0  0  0
M  ZZC   1 n1
M  ZZC   2 c1
M  ZZC   3 c2
M  ZZC   4 c3
M  ZZC   5 o1
M  ZZC   6 n2
M  ZZC   7 c4
M  ZZC   8 o2
M  ZZC   9 c5
M  ZZC  10 c6
M  ZZC  11 c7
M  ZZC  12 c8
M  ZZC  13 c9
M  ZZC  14 c10
M  ZZC  15 o3
M  ZZC  16 n3
M  ZZC  17 c11
M  ZZC  18 o4
M  ZZC  19 c12
M  ZZC  20 c13
M  ZZC  21 h11
M  ZZC  22 h12
M  ZZC  23 h61
M  ZZC  24 h71
M  ZZC  25 h81
M  ZZC  26 h91
M  ZZC  27 h31
M  ZZC  28 h121
M  ZZC  29 h122
M  ZZC  30 h131
M  ZZC  31 h132
M  ZZM   1 40
M  ZZI   1 224
M  ZZM   2 37
M  ZZI   2 124
M  ZZM   3 37
M  ZZI   3 124
M  ZZM   4 3
M  ZZI   4 121
M  ZZM   5 7
M  ZZI   5 81
M  ZZM   6 10
M  ZZI   6 192
M  ZZM   7 3
M  ZZI   7 121
M  ZZM   8 7
M  ZZI   8 81
M  ZZM   9 37
M  ZZI   9 124
M  ZZM  10 37
M  ZZI  10 125
M  ZZM  11 37
M  ZZI  11 125
M  ZZM  12 37
M  ZZI  12 125
M  ZZM  13 1
M  ZZI  13 113
M  ZZM  14 3
M  ZZI  14 121
M  ZZM  15 7
M  ZZI  15 81
M  ZZM  16 10
M  ZZI  16 191
M  ZZM  17 3
M  ZZI  17 121
M  ZZM  18 7
M  ZZI  18 81
M  ZZM  19 1
M  ZZI  19 112
M  ZZM  20 1
M  ZZI  20 112
M  ZZM  21 28
M  ZZI  21 11
M  ZZM  22 28
M  ZZI  22 11
M  ZZM  23 5
M  ZZI  23 1
M  ZZM  24 5
M  ZZI  24 1
M  ZZM  25 5
M  ZZI  25 1
M  ZZM  26 5
M  ZZI  26 1
M  ZZM  27 28
M  ZZI  27 11
M  ZZM  28 5
M  ZZI  28 1
M  ZZM  29 5
M  ZZI  29 1
M  ZZM  30 5
M  ZZI  30 1
M  ZZM  31 5
M  ZZI  31 1
M  END
> <IX>
1

> <NAME>
Cereblon_6VS3_29.pdb

> <Score>
-18.527476

> <Natom>
31

> <Nflex>
1

> <Hbond>
-3.692053

> <Hphob>
-3.57164

> <VwInt>
-24.219708

> <Dsolv>
15.126358

> <SolEl>
6.830352

> <Eintl>
1.622209

> <RecConf>
ND

> <projPath>
Cereblon_maps/

> <NAME_>
Cereblon_6VS3_29.pdb

$$$$
