Cereblon_6Y7K_8.pdb
  MOLSOFT 04032206303D

 29 31  0  0  1  0  0  0  0  0999 V2000
   79.8237   43.6062   42.5462 C   0  0  0  0  0  0  0  0  0  0  0  0
   79.0046   42.4908   42.6722 C   0  0  0  0  0  0  0  0  0  0  0  0
   78.1853   42.1961   41.5967 C   0  0  0  0  0  0  0  0  0  0  0  0
   77.2681   41.0778   41.4108 C   0  0  0  0  0  0  0  0  0  0  0  0
   77.0880   40.2171   42.2584 O   0  0  0  0  0  0  0  0  0  0  0  0
   76.7276   41.2201   40.1460 N   0  0  0  0  0  0  0  0  0  0  0  0
   77.2236   42.3473   39.5230 C   0  0  0  0  0  0  0  0  0  0  0  0
   76.9879   42.7656   38.3967 O   0  0  0  0  0  0  0  0  0  0  0  0
   78.1581   42.9591   40.4682 C   0  0  0  0  0  0  0  0  0  0  0  0
   78.9573   44.0751   40.3260 C   0  0  0  0  0  0  0  0  0  0  0  0
   79.7997   44.3843   41.3882 C   0  0  0  0  0  0  0  0  0  0  0  0
   75.7190   40.3657   39.5128 C   0  0  2  0  0  0  0  0  0  0  0  0
   74.3394   40.9356   39.8009 C   0  0  0  0  0  0  0  0  0  0  0  0
   74.1534   42.1218   40.0161 O   0  0  0  0  0  0  0  0  0  0  0  0
   73.2885   40.0545   39.7245 N   0  0  0  0  0  0  0  0  0  0  0  0
   73.3257   38.7086   39.4530 C   0  0  0  0  0  0  0  0  0  0  0  0
   72.3097   38.0358   39.3934 O   0  0  0  0  0  0  0  0  0  0  0  0
   74.6902   38.1256   39.1786 C   0  0  0  0  0  0  0  0  0  0  0  0
   75.7722   38.8955   39.9151 C   0  0  0  0  0  0  0  0  0  0  0  0
   80.4907   43.8753   43.3603 H   0  0  0  0  0  0  0  0  0  0  0  0
   79.0159   41.8748   43.5671 H   0  0  0  0  0  0  0  0  0  0  0  0
   78.9260   44.6771   39.4256 H   0  0  0  0  0  0  0  0  0  0  0  0
   80.4472   45.2508   41.3190 H   0  0  0  0  0  0  0  0  0  0  0  0
   75.8591   40.4533   38.4334 H   0  0  0  0  0  0  0  0  0  0  0  0
   72.3702   40.4490   39.8863 H   0  0  0  0  0  0  0  0  0  0  0  0
   74.6959   37.0802   39.5030 H   0  0  0  0  0  0  0  0  0  0  0  0
   74.8528   38.1461   38.0965 H   0  0  0  0  0  0  0  0  0  0  0  0
   76.7573   38.4730   39.6924 H   0  0  0  0  0  0  0  0  0  0  0  0
   75.6098   38.7765   40.9901 H   0  0  0  0  0  0  0  0  0  0  0  0
  1 20  1  0  0  0  0
  1  2  1  0  0  0  0
  1 11  2  0  0  0  0
  2 21  1  0  0  0  0
  2  3  2  0  0  0  0
  3  4  1  0  0  0  0
  3  9  1  0  0  0  0
  4  5  2  0  0  0  0
  4  6  1  0  0  0  0
  6  7  1  0  0  0  0
 12  6  1  0  0  0  0
  7  8  2  0  0  0  0
  7  9  1  0  0  0  0
  9 10  2  0  0  0  0
 10 22  1  0  0  0  0
 10 11  1  0  0  0  0
 11 23  1  0  0  0  0
 12 24  1  0  0  0  0
 12 13  1  0  0  0  0
 12 19  1  0  0  0  0
 13 14  2  0  0  0  0
 13 15  1  0  0  0  0
 15 25  1  0  0  0  0
 15 16  1  0  0  0  0
 16 17  2  0  0  0  0
 16 18  1  0  0  0  0
 18 26  1  0  0  0  0
 18 27  1  0  0  0  0
 18 19  1  0  0  0  0
 19 28  1  0  0  0  0
 19 29  1  0  0  0  0
M  ZZC   1 c1
M  ZZC   2 c2
M  ZZC   3 c3
M  ZZC   4 c4
M  ZZC   5 o1
M  ZZC   6 n1
M  ZZC   7 c5
M  ZZC   8 o2
M  ZZC   9 c6
M  ZZC  10 c7
M  ZZC  11 c8
M  ZZC  12 c9
M  ZZC  13 c10
M  ZZC  14 o3
M  ZZC  15 n2
M  ZZC  16 c11
M  ZZC  17 o4
M  ZZC  18 c12
M  ZZC  19 c13
M  ZZC  20 h11
M  ZZC  21 h21
M  ZZC  22 h71
M  ZZC  23 h81
M  ZZC  24 h91
M  ZZC  25 h01
M  ZZC  26 h121
M  ZZC  27 h122
M  ZZC  28 h131
M  ZZC  29 h132
M  ZZM   1 37
M  ZZI   1 125
M  ZZM   2 37
M  ZZI   2 125
M  ZZM   3 37
M  ZZI   3 124
M  ZZM   4 3
M  ZZI   4 121
M  ZZM   5 7
M  ZZI   5 81
M  ZZM   6 10
M  ZZI   6 192
M  ZZM   7 3
M  ZZI   7 121
M  ZZM   8 7
M  ZZI   8 81
M  ZZM   9 37
M  ZZI   9 124
M  ZZM  10 37
M  ZZI  10 125
M  ZZM  11 37
M  ZZI  11 125
M  ZZM  12 1
M  ZZI  12 113
M  ZZM  13 3
M  ZZI  13 121
M  ZZM  14 7
M  ZZI  14 81
M  ZZM  15 10
M  ZZI  15 191
M  ZZM  16 3
M  ZZI  16 121
M  ZZM  17 7
M  ZZI  17 81
M  ZZM  18 1
M  ZZI  18 112
M  ZZM  19 1
M  ZZI  19 112
M  ZZM  20 5
M  ZZI  20 1
M  ZZM  21 5
M  ZZI  21 1
M  ZZM  22 5
M  ZZI  22 1
M  ZZM  23 5
M  ZZI  23 1
M  ZZM  24 5
M  ZZI  24 1
M  ZZM  25 28
M  ZZI  25 11
M  ZZM  26 5
M  ZZI  26 1
M  ZZM  27 5
M  ZZI  27 1
M  ZZM  28 5
M  ZZI  28 1
M  ZZM  29 5
M  ZZI  29 1
M  END
> <IX>
1

> <NAME>
Cereblon_6Y7K_8.pdb

> <Score>
-19.396212

> <Natom>
29

> <Nflex>
1

> <Hbond>
-3.360703

> <Hphob>
-3.52798

> <VwInt>
-22.730444

> <Dsolv>
12.040393

> <SolEl>
5.570598

> <Eintl>
1.489444

> <RecConf>
ND

> <projPath>
Cereblon_maps/

> <NAME_>
Cereblon_6Y7K_8.pdb

$$$$
