Cereblon_3LQ5_15.pdb
  MOLSOFT 04032206223D

 31 33  0  0  1  0  0  0  0  0999 V2000
   78.8176   41.6831   43.8112 N   0  0  0  0  0  0  0  0  0  0  0  0
   78.9009   42.4336   42.6285 C   0  0  0  0  0  0  0  0  0  0  0  0
   78.0977   42.1631   41.5336 C   0  0  0  0  0  0  0  0  0  0  0  0
   77.1767   41.0523   41.3286 C   0  0  0  0  0  0  0  0  0  0  0  0
   76.9926   40.1740   42.1582 O   0  0  0  0  0  0  0  0  0  0  0  0
   76.6440   41.2126   40.0649 N   0  0  0  0  0  0  0  0  0  0  0  0
   77.1646   42.3326   39.4493 C   0  0  0  0  0  0  0  0  0  0  0  0
   76.9514   42.7529   38.3194 O   0  0  0  0  0  0  0  0  0  0  0  0
   78.0954   42.9301   40.4080 C   0  0  0  0  0  0  0  0  0  0  0  0
   78.9070   44.0391   40.2848 C   0  0  0  0  0  0  0  0  0  0  0  0
   79.7243   44.3403   41.3684 C   0  0  0  0  0  0  0  0  0  0  0  0
   79.7118   43.5599   42.5260 C   0  0  0  0  0  0  0  0  0  0  0  0
   75.6244   40.3748   39.4300 C   0  0  2  0  0  0  0  0  0  0  0  0
   74.2529   40.9527   39.7354 C   0  0  0  0  0  0  0  0  0  0  0  0
   74.0821   42.1327   39.9929 O   0  0  0  0  0  0  0  0  0  0  0  0
   73.1926   40.0869   39.6213 N   0  0  0  0  0  0  0  0  0  0  0  0
   73.2179   38.7493   39.3085 C   0  0  0  0  0  0  0  0  0  0  0  0
   72.1932   38.0965   39.1982 O   0  0  0  0  0  0  0  0  0  0  0  0
   74.5814   38.1502   39.0579 C   0  0  0  0  0  0  0  0  0  0  0  0
   75.6586   38.9005   39.8210 C   0  0  0  0  0  0  0  0  0  0  0  0
   79.5332   41.7881   44.5273 H   0  0  0  0  0  0  0  0  0  0  0  0
   78.2941   40.8063   43.7907 H   0  0  0  0  0  0  0  0  0  0  0  0
   78.8997   44.6450   39.3864 H   0  0  0  0  0  0  0  0  0  0  0  0
   80.3750   45.2064   41.3211 H   0  0  0  0  0  0  0  0  0  0  0  0
   80.3474   43.8401   43.3604 H   0  0  0  0  0  0  0  0  0  0  0  0
   75.7581   40.4736   38.3515 H   0  0  0  0  0  0  0  0  0  0  0  0
   72.2770   40.4884   39.7818 H   0  0  0  0  0  0  0  0  0  0  0  0
   74.5662   37.1030   39.3761 H   0  0  0  0  0  0  0  0  0  0  0  0
   74.7699   38.1743   37.9801 H   0  0  0  0  0  0  0  0  0  0  0  0
   75.4743   38.7744   40.8919 H   0  0  0  0  0  0  0  0  0  0  0  0
   76.6437   38.4701   39.6141 H   0  0  0  0  0  0  0  0  0  0  0  0
  1  2  1  0  0  0  0
  1 21  1  0  0  0  0
  1 22  1  0  0  0  0
  2  3  1  0  0  0  0
  2 12  2  0  0  0  0
  3  9  2  0  0  0  0
  3  4  1  0  0  0  0
  4  5  2  0  0  0  0
  4  6  1  0  0  0  0
  6  7  1  0  0  0  0
 13  6  1  0  0  0  0
  7  8  2  0  0  0  0
  7  9  1  0  0  0  0
  9 10  1  0  0  0  0
 10 23  1  0  0  0  0
 10 11  2  0  0  0  0
 11 12  1  0  0  0  0
 11 24  1  0  0  0  0
 12 25  1  0  0  0  0
 13 26  1  0  0  0  0
 13 14  1  0  0  0  0
 13 20  1  0  0  0  0
 14 15  2  0  0  0  0
 14 16  1  0  0  0  0
 16 27  1  0  0  0  0
 16 17  1  0  0  0  0
 17 18  2  0  0  0  0
 17 19  1  0  0  0  0
 19 28  1  0  0  0  0
 19 29  1  0  0  0  0
 19 20  1  0  0  0  0
 20 30  1  0  0  0  0
 20 31  1  0  0  0  0
M  ZZC   1 n1
M  ZZC   2 c1
M  ZZC   3 c2
M  ZZC   4 c3
M  ZZC   5 o1
M  ZZC   6 n2
M  ZZC   7 c4
M  ZZC   8 o2
M  ZZC   9 c5
M  ZZC  10 c6
M  ZZC  11 c7
M  ZZC  12 c8
M  ZZC  13 c9
M  ZZC  14 c10
M  ZZC  15 o3
M  ZZC  16 n3
M  ZZC  17 c11
M  ZZC  18 o4
M  ZZC  19 c12
M  ZZC  20 c13
M  ZZC  21 h11
M  ZZC  22 h12
M  ZZC  23 h61
M  ZZC  24 h71
M  ZZC  25 h81
M  ZZC  26 h91
M  ZZC  27 h31
M  ZZC  28 h121
M  ZZC  29 h122
M  ZZC  30 h131
M  ZZC  31 h132
M  ZZM   1 40
M  ZZI   1 224
M  ZZM   2 37
M  ZZI   2 124
M  ZZM   3 37
M  ZZI   3 124
M  ZZM   4 3
M  ZZI   4 121
M  ZZM   5 7
M  ZZI   5 81
M  ZZM   6 10
M  ZZI   6 192
M  ZZM   7 3
M  ZZI   7 121
M  ZZM   8 7
M  ZZI   8 81
M  ZZM   9 37
M  ZZI   9 124
M  ZZM  10 37
M  ZZI  10 125
M  ZZM  11 37
M  ZZI  11 125
M  ZZM  12 37
M  ZZI  12 125
M  ZZM  13 1
M  ZZI  13 113
M  ZZM  14 3
M  ZZI  14 121
M  ZZM  15 7
M  ZZI  15 81
M  ZZM  16 10
M  ZZI  16 191
M  ZZM  17 3
M  ZZI  17 121
M  ZZM  18 7
M  ZZI  18 81
M  ZZM  19 1
M  ZZI  19 112
M  ZZM  20 1
M  ZZI  20 112
M  ZZM  21 28
M  ZZI  21 11
M  ZZM  22 28
M  ZZI  22 11
M  ZZM  23 5
M  ZZI  23 1
M  ZZM  24 5
M  ZZI  24 1
M  ZZM  25 5
M  ZZI  25 1
M  ZZM  26 5
M  ZZI  26 1
M  ZZM  27 28
M  ZZI  27 11
M  ZZM  28 5
M  ZZI  28 1
M  ZZM  29 5
M  ZZI  29 1
M  ZZM  30 5
M  ZZI  30 1
M  ZZM  31 5
M  ZZI  31 1
M  END
> <IX>
1

> <NAME>
Cereblon_3LQ5_15.pdb

> <Score>
-18.516562

> <Natom>
31

> <Nflex>
1

> <Hbond>
-3.686959

> <Hphob>
-3.553061

> <VwInt>
-24.294711

> <Dsolv>
15.210023

> <SolEl>
6.799683

> <Eintl>
1.65233

> <RecConf>
ND

> <projPath>
Cereblon_maps/

> <NAME_>
Cereblon_3LQ5_15.pdb

$$$$
