Cereblon_5L2I_21.pdb
  MOLSOFT 04032206253D

 29 31  0  0  1  0  0  0  0  0999 V2000
   79.0058   42.4887   42.6724 C   0  0  0  0  0  0  0  0  0  0  0  0
   78.1866   42.1943   41.5969 C   0  0  0  0  0  0  0  0  0  0  0  0
   77.2694   41.0759   41.4111 C   0  0  0  0  0  0  0  0  0  0  0  0
   77.0895   40.2148   42.2586 O   0  0  0  0  0  0  0  0  0  0  0  0
   76.7288   41.2180   40.1461 N   0  0  0  0  0  0  0  0  0  0  0  0
   77.2253   42.3451   39.5231 C   0  0  0  0  0  0  0  0  0  0  0  0
   76.9896   42.7647   38.3975 O   0  0  0  0  0  0  0  0  0  0  0  0
   78.1592   42.9572   40.4685 C   0  0  0  0  0  0  0  0  0  0  0  0
   78.9579   44.0736   40.3261 C   0  0  0  0  0  0  0  0  0  0  0  0
   79.8002   44.3840   41.3879 C   0  0  0  0  0  0  0  0  0  0  0  0
   79.8249   43.6044   42.5455 C   0  0  0  0  0  0  0  0  0  0  0  0
   75.7200   40.3637   39.5137 C   0  0  2  0  0  0  0  0  0  0  0  0
   74.3405   40.9319   39.8035 C   0  0  0  0  0  0  0  0  0  0  0  0
   74.1534   42.1180   40.0187 O   0  0  0  0  0  0  0  0  0  0  0  0
   73.2901   40.0506   39.7273 N   0  0  0  0  0  0  0  0  0  0  0  0
   73.3274   38.7052   39.4541 C   0  0  0  0  0  0  0  0  0  0  0  0
   72.3110   38.0328   39.3948 O   0  0  0  0  0  0  0  0  0  0  0  0
   74.6924   38.1236   39.1771 C   0  0  0  0  0  0  0  0  0  0  0  0
   75.7746   38.8932   39.9145 C   0  0  0  0  0  0  0  0  0  0  0  0
   79.0186   41.8723   43.5671 H   0  0  0  0  0  0  0  0  0  0  0  0
   78.9279   44.6745   39.4247 H   0  0  0  0  0  0  0  0  0  0  0  0
   80.4496   45.2489   41.3171 H   0  0  0  0  0  0  0  0  0  0  0  0
   80.4937   43.8709   43.3592 H   0  0  0  0  0  0  0  0  0  0  0  0
   75.8590   40.4525   38.4341 H   0  0  0  0  0  0  0  0  0  0  0  0
   72.3716   40.4443   39.8899 H   0  0  0  0  0  0  0  0  0  0  0  0
   74.6976   37.0777   39.5013 H   0  0  0  0  0  0  0  0  0  0  0  0
   74.8534   38.1461   38.0950 H   0  0  0  0  0  0  0  0  0  0  0  0
   75.6116   38.7734   40.9893 H   0  0  0  0  0  0  0  0  0  0  0  0
   76.7603   38.4721   39.6903 H   0  0  0  0  0  0  0  0  0  0  0  0
  1 20  1  0  0  0  0
  1  2  1  0  0  0  0
  1 11  2  0  0  0  0
  2  3  1  0  0  0  0
  2  8  2  0  0  0  0
  3  4  2  0  0  0  0
  3  5  1  0  0  0  0
  5  6  1  0  0  0  0
 12  5  1  0  0  0  0
  6  7  2  0  0  0  0
  6  8  1  0  0  0  0
  8  9  1  0  0  0  0
  9 21  1  0  0  0  0
  9 10  2  0  0  0  0
 10 22  1  0  0  0  0
 10 11  1  0  0  0  0
 11 23  1  0  0  0  0
 12 24  1  0  0  0  0
 12 13  1  0  0  0  0
 12 19  1  0  0  0  0
 13 14  2  0  0  0  0
 13 15  1  0  0  0  0
 15 25  1  0  0  0  0
 15 16  1  0  0  0  0
 16 17  2  0  0  0  0
 16 18  1  0  0  0  0
 18 26  1  0  0  0  0
 18 27  1  0  0  0  0
 18 19  1  0  0  0  0
 19 28  1  0  0  0  0
 19 29  1  0  0  0  0
M  ZZC   1 c1
M  ZZC   2 c2
M  ZZC   3 c3
M  ZZC   4 o1
M  ZZC   5 n1
M  ZZC   6 c4
M  ZZC   7 o2
M  ZZC   8 c5
M  ZZC   9 c6
M  ZZC  10 c7
M  ZZC  11 c8
M  ZZC  12 c9
M  ZZC  13 c10
M  ZZC  14 o3
M  ZZC  15 n2
M  ZZC  16 c11
M  ZZC  17 o4
M  ZZC  18 c12
M  ZZC  19 c13
M  ZZC  20 h11
M  ZZC  21 h61
M  ZZC  22 h71
M  ZZC  23 h81
M  ZZC  24 h91
M  ZZC  25 h21
M  ZZC  26 h121
M  ZZC  27 h122
M  ZZC  28 h131
M  ZZC  29 h132
M  ZZM   1 37
M  ZZI   1 125
M  ZZM   2 37
M  ZZI   2 124
M  ZZM   3 3
M  ZZI   3 121
M  ZZM   4 7
M  ZZI   4 81
M  ZZM   5 10
M  ZZI   5 192
M  ZZM   6 3
M  ZZI   6 121
M  ZZM   7 7
M  ZZI   7 81
M  ZZM   8 37
M  ZZI   8 124
M  ZZM   9 37
M  ZZI   9 125
M  ZZM  10 37
M  ZZI  10 125
M  ZZM  11 37
M  ZZI  11 125
M  ZZM  12 1
M  ZZI  12 113
M  ZZM  13 3
M  ZZI  13 121
M  ZZM  14 7
M  ZZI  14 81
M  ZZM  15 10
M  ZZI  15 191
M  ZZM  16 3
M  ZZI  16 121
M  ZZM  17 7
M  ZZI  17 81
M  ZZM  18 1
M  ZZI  18 112
M  ZZM  19 1
M  ZZI  19 112
M  ZZM  20 5
M  ZZI  20 1
M  ZZM  21 5
M  ZZI  21 1
M  ZZM  22 5
M  ZZI  22 1
M  ZZM  23 5
M  ZZI  23 1
M  ZZM  24 5
M  ZZI  24 1
M  ZZM  25 28
M  ZZI  25 11
M  ZZM  26 5
M  ZZI  26 1
M  ZZM  27 5
M  ZZI  27 1
M  ZZM  28 5
M  ZZI  28 1
M  ZZM  29 5
M  ZZI  29 1
M  END
> <IX>
1

> <NAME>
Cereblon_5L2I_21.pdb

> <Score>
-19.387711

> <Natom>
29

> <Nflex>
1

> <Hbond>
-3.364822

> <Hphob>
-3.526709

> <VwInt>
-22.681724

> <Dsolv>
12.024466

> <SolEl>
5.563359

> <Eintl>
1.466233

> <RecConf>
ND

> <projPath>
Cereblon_maps/

> <NAME_>
Cereblon_5L2I_21.pdb

$$$$
