Cereblon_4IPF_3.pdb
  MOLSOFT 04032206233D

 30 32  0  0  1  0  0  0  0  0999 V2000
   76.4129   37.9513   40.4631 C   0  0  0  0  0  0  0  0  0  0  0  0
   75.6951   39.0041   39.9215 C   0  0  0  0  0  0  0  0  0  0  0  0
   75.9200   40.2806   40.3571 C   0  0  0  0  0  0  0  0  0  0  0  0
   75.0295   41.1746   39.6147 C   0  0  0  0  0  0  0  0  0  0  0  0
   74.9110   42.3717   39.8216 O   0  0  0  0  0  0  0  0  0  0  0  0
   74.3804   40.4008   38.6717 N   0  0  0  0  0  0  0  0  0  0  0  0
   73.3542   40.8795   37.7383 C   0  0  2  0  0  0  0  0  0  0  0  0
   73.8230   42.1276   36.9827 C   0  0  0  0  0  0  0  0  0  0  0  0
   74.9962   42.3622   36.7292 O   0  0  0  0  0  0  0  0  0  0  0  0
   72.8303   42.9680   36.5305 N   0  0  0  0  0  0  0  0  0  0  0  0
   71.4735   42.8748   36.7239 C   0  0  0  0  0  0  0  0  0  0  0  0
   70.7001   43.7342   36.3280 O   0  0  0  0  0  0  0  0  0  0  0  0
   70.9997   41.6229   37.4166 C   0  0  0  0  0  0  0  0  0  0  0  0
   72.0170   41.1187   38.4267 C   0  0  0  0  0  0  0  0  0  0  0  0
   74.6304   38.9869   38.8820 C   0  0  0  0  0  0  0  0  0  0  0  0
   76.8514   40.5971   41.3299 C   0  0  0  0  0  0  0  0  0  0  0  0
   77.5708   39.5455   41.8775 C   0  0  0  0  0  0  0  0  0  0  0  0
   77.3541   38.2394   41.4453 C   0  0  0  0  0  0  0  0  0  0  0  0
   76.2474   36.9302   40.1330 H   0  0  0  0  0  0  0  0  0  0  0  0
   73.2323   40.1016   36.9755 H   0  0  0  0  0  0  0  0  0  0  0  0
   73.1447   43.7951   36.0420 H   0  0  0  0  0  0  0  0  0  0  0  0
   70.0594   41.8484   37.9241 H   0  0  0  0  0  0  0  0  0  0  0  0
   70.8002   40.8647   36.6526 H   0  0  0  0  0  0  0  0  0  0  0  0
   72.1301   41.8352   39.2463 H   0  0  0  0  0  0  0  0  0  0  0  0
   71.6532   40.1921   38.8824 H   0  0  0  0  0  0  0  0  0  0  0  0
   74.9471   38.5147   37.9491 H   0  0  0  0  0  0  0  0  0  0  0  0
   73.7180   38.5136   39.2614 H   0  0  0  0  0  0  0  0  0  0  0  0
   77.0265   41.6208   41.6456 H   0  0  0  0  0  0  0  0  0  0  0  0
   78.3093   39.7440   42.6485 H   0  0  0  0  0  0  0  0  0  0  0  0
   77.9302   37.4321   41.8861 H   0  0  0  0  0  0  0  0  0  0  0  0
  1 19  1  0  0  0  0
  1 18  2  0  0  0  0
  1  2  1  0  0  0  0
  2  3  2  0  0  0  0
  2 15  1  0  0  0  0
  3 16  1  0  0  0  0
  3  4  1  0  0  0  0
  4  6  1  0  0  0  0
  4  5  2  0  0  0  0
  6 15  1  0  0  0  0
  7  6  1  0  0  0  0
  7 20  1  0  0  0  0
  7  8  1  0  0  0  0
  7 14  1  0  0  0  0
  8  9  2  0  0  0  0
  8 10  1  0  0  0  0
 10 21  1  0  0  0  0
 10 11  1  0  0  0  0
 11 12  2  0  0  0  0
 11 13  1  0  0  0  0
 13 22  1  0  0  0  0
 13 23  1  0  0  0  0
 13 14  1  0  0  0  0
 14 24  1  0  0  0  0
 14 25  1  0  0  0  0
 15 26  1  0  0  0  0
 15 27  1  0  0  0  0
 16 17  2  0  0  0  0
 16 28  1  0  0  0  0
 17 18  1  0  0  0  0
 17 29  1  0  0  0  0
 18 30  1  0  0  0  0
M  ZZC   1 c1
M  ZZC   2 c2
M  ZZC   3 c3
M  ZZC   4 c4
M  ZZC   5 o1
M  ZZC   6 n1
M  ZZC   7 c5
M  ZZC   8 c6
M  ZZC   9 o2
M  ZZC  10 n2
M  ZZC  11 c7
M  ZZC  12 o3
M  ZZC  13 c8
M  ZZC  14 c9
M  ZZC  15 c10
M  ZZC  16 c11
M  ZZC  17 c12
M  ZZC  18 c13
M  ZZC  19 h11
M  ZZC  20 h51
M  ZZC  21 h21
M  ZZC  22 h81
M  ZZC  23 h82
M  ZZC  24 h91
M  ZZC  25 h92
M  ZZC  26 h101
M  ZZC  27 h102
M  ZZC  28 h111
M  ZZC  29 h121
M  ZZC  30 h131
M  ZZM   1 37
M  ZZI   1 125
M  ZZM   2 37
M  ZZI   2 124
M  ZZM   3 37
M  ZZI   3 124
M  ZZM   4 3
M  ZZI   4 121
M  ZZM   5 7
M  ZZI   5 81
M  ZZM   6 10
M  ZZI   6 192
M  ZZM   7 1
M  ZZI   7 113
M  ZZM   8 3
M  ZZI   8 121
M  ZZM   9 7
M  ZZI   9 81
M  ZZM  10 10
M  ZZI  10 191
M  ZZM  11 3
M  ZZI  11 121
M  ZZM  12 7
M  ZZI  12 81
M  ZZM  13 1
M  ZZI  13 112
M  ZZM  14 1
M  ZZI  14 112
M  ZZM  15 1
M  ZZI  15 112
M  ZZM  16 37
M  ZZI  16 125
M  ZZM  17 37
M  ZZI  17 125
M  ZZM  18 37
M  ZZI  18 125
M  ZZM  19 5
M  ZZI  19 1
M  ZZM  20 5
M  ZZI  20 1
M  ZZM  21 28
M  ZZI  21 11
M  ZZM  22 5
M  ZZI  22 1
M  ZZM  23 5
M  ZZI  23 1
M  ZZM  24 5
M  ZZI  24 1
M  ZZM  25 5
M  ZZI  25 1
M  ZZM  26 5
M  ZZI  26 1
M  ZZM  27 5
M  ZZI  27 1
M  ZZM  28 5
M  ZZI  28 1
M  ZZM  29 5
M  ZZI  29 1
M  ZZM  30 5
M  ZZI  30 1
M  END
> <IX>
1

> <NAME>
Cereblon_4IPF_3.pdb

> <Score>
-17.480314

> <Natom>
30

> <Nflex>
1

> <Hbond>
-4.721868

> <Hphob>
-3.57916

> <VwInt>
-20.407389

> <Dsolv>
14.214318

> <SolEl>
5.73647

> <Eintl>
3.707717

> <RecConf>
ND

> <projPath>
Cereblon_maps/

> <NAME_>
Cereblon_4IPF_3.pdb

$$$$
