Cereblon_5TOB_2.pdb
  MOLSOFT 04032206263D

 31 33  0  0  1  0  0  0  0  0999 V2000
   77.6249   41.8920   41.9139 N   0  0  0  0  0  0  0  0  0  0  0  0
   77.2708   40.5854   41.5446 C   0  0  0  0  0  0  0  0  0  0  0  0
   76.3431   40.2994   40.5500 C   0  0  0  0  0  0  0  0  0  0  0  0
   75.4418   41.1768   39.7953 C   0  0  0  0  0  0  0  0  0  0  0  0
   75.2876   42.3676   40.0170 O   0  0  0  0  0  0  0  0  0  0  0  0
   74.7963   40.3827   38.8728 N   0  0  0  0  0  0  0  0  0  0  0  0
   75.0967   39.0562   39.0807 C   0  0  0  0  0  0  0  0  0  0  0  0
   74.6180   38.0617   38.5551 O   0  0  0  0  0  0  0  0  0  0  0  0
   76.1133   39.0226   40.1285 C   0  0  0  0  0  0  0  0  0  0  0  0
   76.7709   37.9312   40.6616 C   0  0  0  0  0  0  0  0  0  0  0  0
   77.6941   38.1896   41.6643 C   0  0  0  0  0  0  0  0  0  0  0  0
   77.9383   39.4935   42.0910 C   0  0  0  0  0  0  0  0  0  0  0  0
   73.7532   40.8319   37.9469 C   0  0  2  0  0  0  0  0  0  0  0  0
   74.1773   42.0700   37.1604 C   0  0  0  0  0  0  0  0  0  0  0  0
   75.3442   42.3474   36.9216 O   0  0  0  0  0  0  0  0  0  0  0  0
   73.1479   42.8326   36.6578 N   0  0  0  0  0  0  0  0  0  0  0  0
   71.7930   42.6498   36.8012 C   0  0  0  0  0  0  0  0  0  0  0  0
   70.9825   43.3926   36.2683 O   0  0  0  0  0  0  0  0  0  0  0  0
   71.3692   41.4502   37.6150 C   0  0  0  0  0  0  0  0  0  0  0  0
   72.4209   41.0651   38.6450 C   0  0  0  0  0  0  0  0  0  0  0  0
   78.1716   42.0418   42.7595 H   0  0  0  0  0  0  0  0  0  0  0  0
   77.1089   42.6843   41.5290 H   0  0  0  0  0  0  0  0  0  0  0  0
   76.5751   36.9206   40.3155 H   0  0  0  0  0  0  0  0  0  0  0  0
   78.2404   37.3678   42.1171 H   0  0  0  0  0  0  0  0  0  0  0  0
   78.6794   39.6581   42.8666 H   0  0  0  0  0  0  0  0  0  0  0  0
   73.6151   40.0336   37.2083 H   0  0  0  0  0  0  0  0  0  0  0  0
   73.4195   43.6409   36.1156 H   0  0  0  0  0  0  0  0  0  0  0  0
   70.4288   41.6900   38.1198 H   0  0  0  0  0  0  0  0  0  0  0  0
   71.1791   40.6219   36.9244 H   0  0  0  0  0  0  0  0  0  0  0  0
   72.5185   41.8465   39.4053 H   0  0  0  0  0  0  0  0  0  0  0  0
   72.1030   40.1607   39.1741 H   0  0  0  0  0  0  0  0  0  0  0  0
  1  2  1  0  0  0  0
  1 21  1  0  0  0  0
  1 22  1  0  0  0  0
  2  3  1  0  0  0  0
  2 12  2  0  0  0  0
  3  9  2  0  0  0  0
  3  4  1  0  0  0  0
  4  5  2  0  0  0  0
  4  6  1  0  0  0  0
  6  7  1  0  0  0  0
 13  6  1  0  0  0  0
  7  8  2  0  0  0  0
  7  9  1  0  0  0  0
  9 10  1  0  0  0  0
 10 23  1  0  0  0  0
 10 11  2  0  0  0  0
 11 12  1  0  0  0  0
 11 24  1  0  0  0  0
 12 25  1  0  0  0  0
 13 26  1  0  0  0  0
 13 14  1  0  0  0  0
 13 20  1  0  0  0  0
 14 15  2  0  0  0  0
 14 16  1  0  0  0  0
 16 27  1  0  0  0  0
 16 17  1  0  0  0  0
 17 18  2  0  0  0  0
 17 19  1  0  0  0  0
 19 28  1  0  0  0  0
 19 29  1  0  0  0  0
 19 20  1  0  0  0  0
 20 30  1  0  0  0  0
 20 31  1  0  0  0  0
M  ZZC   1 n1
M  ZZC   2 c1
M  ZZC   3 c2
M  ZZC   4 c3
M  ZZC   5 o1
M  ZZC   6 n2
M  ZZC   7 c4
M  ZZC   8 o2
M  ZZC   9 c5
M  ZZC  10 c6
M  ZZC  11 c7
M  ZZC  12 c8
M  ZZC  13 c9
M  ZZC  14 c10
M  ZZC  15 o3
M  ZZC  16 n3
M  ZZC  17 c11
M  ZZC  18 o4
M  ZZC  19 c12
M  ZZC  20 c13
M  ZZC  21 h11
M  ZZC  22 h12
M  ZZC  23 h61
M  ZZC  24 h71
M  ZZC  25 h81
M  ZZC  26 h91
M  ZZC  27 h31
M  ZZC  28 h121
M  ZZC  29 h122
M  ZZC  30 h131
M  ZZC  31 h132
M  ZZM   1 40
M  ZZI   1 224
M  ZZM   2 37
M  ZZI   2 124
M  ZZM   3 37
M  ZZI   3 124
M  ZZM   4 3
M  ZZI   4 121
M  ZZM   5 7
M  ZZI   5 81
M  ZZM   6 10
M  ZZI   6 192
M  ZZM   7 3
M  ZZI   7 121
M  ZZM   8 7
M  ZZI   8 81
M  ZZM   9 37
M  ZZI   9 124
M  ZZM  10 37
M  ZZI  10 125
M  ZZM  11 37
M  ZZI  11 125
M  ZZM  12 37
M  ZZI  12 125
M  ZZM  13 1
M  ZZI  13 113
M  ZZM  14 3
M  ZZI  14 121
M  ZZM  15 7
M  ZZI  15 81
M  ZZM  16 10
M  ZZI  16 191
M  ZZM  17 3
M  ZZI  17 121
M  ZZM  18 7
M  ZZI  18 81
M  ZZM  19 1
M  ZZI  19 112
M  ZZM  20 1
M  ZZI  20 112
M  ZZM  21 28
M  ZZI  21 11
M  ZZM  22 28
M  ZZI  22 11
M  ZZM  23 5
M  ZZI  23 1
M  ZZM  24 5
M  ZZI  24 1
M  ZZM  25 5
M  ZZI  25 1
M  ZZM  26 5
M  ZZI  26 1
M  ZZM  27 28
M  ZZI  27 11
M  ZZM  28 5
M  ZZI  28 1
M  ZZM  29 5
M  ZZI  29 1
M  ZZM  30 5
M  ZZI  30 1
M  ZZM  31 5
M  ZZI  31 1
M  END
> <IX>
1

> <NAME>
Cereblon_5TOB_2.pdb

> <Score>
-15.619917

> <Natom>
31

> <Nflex>
1

> <Hbond>
-4.150496

> <Hphob>
-3.55693

> <VwInt>
-23.399465

> <Dsolv>
17.364781

> <SolEl>
7.735116

> <Eintl>
3.224474

> <RecConf>
ND

> <projPath>
Cereblon_maps/

> <NAME_>
Cereblon_5TOB_2.pdb

$$$$
