Cereblon_5LLI_9.pdb
  MOLSOFT 04032206263D

 31 33  0  0  1  0  0  0  0  0999 V2000
   79.3205   42.2490   43.9531 N   0  0  0  0  0  0  0  0  0  0  0  0
   79.2088   42.8616   42.6959 C   0  0  0  0  0  0  0  0  0  0  0  0
   78.3067   42.4296   41.7373 C   0  0  0  0  0  0  0  0  0  0  0  0
   77.3125   41.3696   41.8223 C   0  0  0  0  0  0  0  0  0  0  0  0
   77.1649   40.6481   42.7981 O   0  0  0  0  0  0  0  0  0  0  0  0
   76.6523   41.3576   40.6121 N   0  0  0  0  0  0  0  0  0  0  0  0
   77.2022   42.2681   39.7327 C   0  0  0  0  0  0  0  0  0  0  0  0
   76.9401   42.4556   38.5513 O   0  0  0  0  0  0  0  0  0  0  0  0
   78.2348   42.9762   40.4911 C   0  0  0  0  0  0  0  0  0  0  0  0
   79.0814   43.9882   40.0949 C   0  0  0  0  0  0  0  0  0  0  0  0
   80.0404   44.3990   41.0103 C   0  0  0  0  0  0  0  0  0  0  0  0
   80.1057   43.8407   42.2866 C   0  0  0  0  0  0  0  0  0  0  0  0
   75.6112   40.3888   40.2894 C   0  0  1  0  0  0  0  0  0  0  0  0
   74.3746   41.0773   39.7300 C   0  0  0  0  0  0  0  0  0  0  0  0
   74.1142   42.2480   39.9478 O   0  0  0  0  0  0  0  0  0  0  0  0
   73.5242   40.2869   38.9982 N   0  0  0  0  0  0  0  0  0  0  0  0
   73.6860   38.9672   38.6546 C   0  0  0  0  0  0  0  0  0  0  0  0
   72.8515   38.3639   38.0000 O   0  0  0  0  0  0  0  0  0  0  0  0
   74.9330   38.2965   39.1784 C   0  0  0  0  0  0  0  0  0  0  0  0
   76.0656   39.2984   39.3494 C   0  0  0  0  0  0  0  0  0  0  0  0
   79.8460   42.7247   44.6832 H   0  0  0  0  0  0  0  0  0  0  0  0
   78.5541   41.6466   44.2582 H   0  0  0  0  0  0  0  0  0  0  0  0
   79.0092   44.4218   39.1065 H   0  0  0  0  0  0  0  0  0  0  0  0
   80.7592   45.1579   40.7237 H   0  0  0  0  0  0  0  0  0  0  0  0
   80.8732   44.1765   42.9757 H   0  0  0  0  0  0  0  0  0  0  0  0
   75.3261   39.9089   41.2232 H   0  0  0  0  0  0  0  0  0  0  0  0
   72.6898   40.7431   38.6500 H   0  0  0  0  0  0  0  0  0  0  0  0
   74.6878   37.8182   40.1328 H   0  0  0  0  0  0  0  0  0  0  0  0
   75.2218   37.5089   38.4768 H   0  0  0  0  0  0  0  0  0  0  0  0
   76.9607   38.7996   39.7362 H   0  0  0  0  0  0  0  0  0  0  0  0
   76.3284   39.7497   38.3930 H   0  0  0  0  0  0  0  0  0  0  0  0
  1  2  1  0  0  0  0
  1 21  1  0  0  0  0
  1 22  1  0  0  0  0
  2  3  1  0  0  0  0
  2 12  2  0  0  0  0
  3  9  2  0  0  0  0
  3  4  1  0  0  0  0
  4  5  2  0  0  0  0
  4  6  1  0  0  0  0
  6  7  1  0  0  0  0
 13  6  1  0  0  0  0
  7  8  2  0  0  0  0
  7  9  1  0  0  0  0
  9 10  1  0  0  0  0
 10 23  1  0  0  0  0
 10 11  2  0  0  0  0
 11 12  1  0  0  0  0
 11 24  1  0  0  0  0
 12 25  1  0  0  0  0
 13 26  1  0  0  0  0
 13 14  1  0  0  0  0
 13 20  1  0  0  0  0
 14 15  2  0  0  0  0
 14 16  1  0  0  0  0
 16 27  1  0  0  0  0
 16 17  1  0  0  0  0
 17 18  2  0  0  0  0
 17 19  1  0  0  0  0
 19 28  1  0  0  0  0
 19 29  1  0  0  0  0
 19 20  1  0  0  0  0
 20 30  1  0  0  0  0
 20 31  1  0  0  0  0
M  ZZC   1 n1
M  ZZC   2 c1
M  ZZC   3 c2
M  ZZC   4 c3
M  ZZC   5 o1
M  ZZC   6 n2
M  ZZC   7 c4
M  ZZC   8 o2
M  ZZC   9 c5
M  ZZC  10 c6
M  ZZC  11 c7
M  ZZC  12 c8
M  ZZC  13 c9
M  ZZC  14 c10
M  ZZC  15 o3
M  ZZC  16 n3
M  ZZC  17 c11
M  ZZC  18 o4
M  ZZC  19 c12
M  ZZC  20 c13
M  ZZC  21 h11
M  ZZC  22 h12
M  ZZC  23 h61
M  ZZC  24 h71
M  ZZC  25 h81
M  ZZC  26 h91
M  ZZC  27 h31
M  ZZC  28 h121
M  ZZC  29 h122
M  ZZC  30 h131
M  ZZC  31 h132
M  ZZM   1 40
M  ZZI   1 224
M  ZZM   2 37
M  ZZI   2 124
M  ZZM   3 37
M  ZZI   3 124
M  ZZM   4 3
M  ZZI   4 121
M  ZZM   5 7
M  ZZI   5 81
M  ZZM   6 10
M  ZZI   6 192
M  ZZM   7 3
M  ZZI   7 121
M  ZZM   8 7
M  ZZI   8 81
M  ZZM   9 37
M  ZZI   9 124
M  ZZM  10 37
M  ZZI  10 125
M  ZZM  11 37
M  ZZI  11 125
M  ZZM  12 37
M  ZZI  12 125
M  ZZM  13 1
M  ZZI  13 113
M  ZZM  14 3
M  ZZI  14 121
M  ZZM  15 7
M  ZZI  15 81
M  ZZM  16 10
M  ZZI  16 191
M  ZZM  17 3
M  ZZI  17 121
M  ZZM  18 7
M  ZZI  18 81
M  ZZM  19 1
M  ZZI  19 112
M  ZZM  20 1
M  ZZI  20 112
M  ZZM  21 28
M  ZZI  21 11
M  ZZM  22 28
M  ZZI  22 11
M  ZZM  23 5
M  ZZI  23 1
M  ZZM  24 5
M  ZZI  24 1
M  ZZM  25 5
M  ZZI  25 1
M  ZZM  26 5
M  ZZI  26 1
M  ZZM  27 28
M  ZZI  27 11
M  ZZM  28 5
M  ZZI  28 1
M  ZZM  29 5
M  ZZI  29 1
M  ZZM  30 5
M  ZZI  30 1
M  ZZM  31 5
M  ZZI  31 1
M  END
> <IX>
1

> <NAME>
Cereblon_5LLI_9.pdb

> <Score>
-13.016721

> <Natom>
31

> <Nflex>
1

> <Hbond>
-3.971193

> <Hphob>
-3.569563

> <VwInt>
-17.854152

> <Dsolv>
14.73908

> <SolEl>
6.033778

> <Eintl>
2.73259

> <RecConf>
ND

> <projPath>
Cereblon_maps/

> <NAME_>
Cereblon_5LLI_9.pdb

$$$$
