Cereblon_6VS3_1.pdb
  MOLSOFT 04032206293D

 30 32  0  0  1  0  0  0  0  0999 V2000
   76.5015   37.9998   40.5424 C   0  0  0  0  0  0  0  0  0  0  0  0
   75.7718   39.0367   39.9859 C   0  0  0  0  0  0  0  0  0  0  0  0
   75.9830   40.3214   40.4041 C   0  0  0  0  0  0  0  0  0  0  0  0
   75.0832   41.1952   39.6491 C   0  0  0  0  0  0  0  0  0  0  0  0
   74.9524   42.3938   39.8380 O   0  0  0  0  0  0  0  0  0  0  0  0
   74.4407   40.4021   38.7184 N   0  0  0  0  0  0  0  0  0  0  0  0
   73.4067   40.8585   37.7829 C   0  0  2  0  0  0  0  0  0  0  0  0
   73.8582   42.1033   37.0113 C   0  0  0  0  0  0  0  0  0  0  0  0
   75.0277   42.3500   36.7517 O   0  0  0  0  0  0  0  0  0  0  0  0
   72.8537   42.9258   36.5529 N   0  0  0  0  0  0  0  0  0  0  0  0
   71.4980   42.8149   36.7463 C   0  0  0  0  0  0  0  0  0  0  0  0
   70.7120   43.6548   36.3342 O   0  0  0  0  0  0  0  0  0  0  0  0
   71.0431   41.5670   37.4593 C   0  0  0  0  0  0  0  0  0  0  0  0
   72.0704   41.0937   38.4741 C   0  0  0  0  0  0  0  0  0  0  0  0
   74.7042   38.9941   38.9498 C   0  0  0  0  0  0  0  0  0  0  0  0
   76.9085   40.6614   41.3746 C   0  0  0  0  0  0  0  0  0  0  0  0
   77.6356   39.6253   41.9406 C   0  0  0  0  0  0  0  0  0  0  0  0
   77.4364   38.3115   41.5235 C   0  0  0  0  0  0  0  0  0  0  0  0
   76.3495   36.9721   40.2271 H   0  0  0  0  0  0  0  0  0  0  0  0
   73.2901   40.0699   37.0303 H   0  0  0  0  0  0  0  0  0  0  0  0
   73.1564   43.7494   36.0512 H   0  0  0  0  0  0  0  0  0  0  0  0
   70.1006   41.7853   37.9662 H   0  0  0  0  0  0  0  0  0  0  0  0
   70.8526   40.7942   36.7076 H   0  0  0  0  0  0  0  0  0  0  0  0
   72.1787   41.8270   39.2797 H   0  0  0  0  0  0  0  0  0  0  0  0
   71.7203   40.1712   38.9484 H   0  0  0  0  0  0  0  0  0  0  0  0
   75.0193   38.5118   38.0219 H   0  0  0  0  0  0  0  0  0  0  0  0
   73.7977   38.5184   39.3399 H   0  0  0  0  0  0  0  0  0  0  0  0
   77.0704   41.6913   41.6771 H   0  0  0  0  0  0  0  0  0  0  0  0
   78.3667   39.8418   42.7136 H   0  0  0  0  0  0  0  0  0  0  0  0
   78.0200   37.5176   41.9787 H   0  0  0  0  0  0  0  0  0  0  0  0
  1 19  1  0  0  0  0
  1 18  2  0  0  0  0
  1  2  1  0  0  0  0
  2  3  2  0  0  0  0
  2 15  1  0  0  0  0
  3 16  1  0  0  0  0
  3  4  1  0  0  0  0
  4  6  1  0  0  0  0
  4  5  2  0  0  0  0
  6 15  1  0  0  0  0
  7  6  1  0  0  0  0
  7 20  1  0  0  0  0
  7  8  1  0  0  0  0
  7 14  1  0  0  0  0
  8  9  2  0  0  0  0
  8 10  1  0  0  0  0
 10 21  1  0  0  0  0
 10 11  1  0  0  0  0
 11 12  2  0  0  0  0
 11 13  1  0  0  0  0
 13 22  1  0  0  0  0
 13 23  1  0  0  0  0
 13 14  1  0  0  0  0
 14 24  1  0  0  0  0
 14 25  1  0  0  0  0
 15 26  1  0  0  0  0
 15 27  1  0  0  0  0
 16 17  2  0  0  0  0
 16 28  1  0  0  0  0
 17 18  1  0  0  0  0
 17 29  1  0  0  0  0
 18 30  1  0  0  0  0
M  ZZC   1 c1
M  ZZC   2 c2
M  ZZC   3 c3
M  ZZC   4 c4
M  ZZC   5 o1
M  ZZC   6 n1
M  ZZC   7 c5
M  ZZC   8 c6
M  ZZC   9 o2
M  ZZC  10 n2
M  ZZC  11 c7
M  ZZC  12 o3
M  ZZC  13 c8
M  ZZC  14 c9
M  ZZC  15 c10
M  ZZC  16 c11
M  ZZC  17 c12
M  ZZC  18 c13
M  ZZC  19 h11
M  ZZC  20 h51
M  ZZC  21 h21
M  ZZC  22 h81
M  ZZC  23 h82
M  ZZC  24 h91
M  ZZC  25 h92
M  ZZC  26 h101
M  ZZC  27 h102
M  ZZC  28 h111
M  ZZC  29 h121
M  ZZC  30 h131
M  ZZM   1 37
M  ZZI   1 125
M  ZZM   2 37
M  ZZI   2 124
M  ZZM   3 37
M  ZZI   3 124
M  ZZM   4 3
M  ZZI   4 121
M  ZZM   5 7
M  ZZI   5 81
M  ZZM   6 10
M  ZZI   6 192
M  ZZM   7 1
M  ZZI   7 113
M  ZZM   8 3
M  ZZI   8 121
M  ZZM   9 7
M  ZZI   9 81
M  ZZM  10 10
M  ZZI  10 191
M  ZZM  11 3
M  ZZI  11 121
M  ZZM  12 7
M  ZZI  12 81
M  ZZM  13 1
M  ZZI  13 112
M  ZZM  14 1
M  ZZI  14 112
M  ZZM  15 1
M  ZZI  15 112
M  ZZM  16 37
M  ZZI  16 125
M  ZZM  17 37
M  ZZI  17 125
M  ZZM  18 37
M  ZZI  18 125
M  ZZM  19 5
M  ZZI  19 1
M  ZZM  20 5
M  ZZI  20 1
M  ZZM  21 28
M  ZZI  21 11
M  ZZM  22 5
M  ZZI  22 1
M  ZZM  23 5
M  ZZI  23 1
M  ZZM  24 5
M  ZZI  24 1
M  ZZM  25 5
M  ZZI  25 1
M  ZZM  26 5
M  ZZI  26 1
M  ZZM  27 5
M  ZZI  27 1
M  ZZM  28 5
M  ZZI  28 1
M  ZZM  29 5
M  ZZI  29 1
M  ZZM  30 5
M  ZZI  30 1
M  END
> <IX>
1

> <NAME>
Cereblon_6VS3_1.pdb

> <Score>
-17.221171

> <Natom>
30

> <Nflex>
1

> <Hbond>
-4.657645

> <Hphob>
-3.556749

> <VwInt>
-20.56338

> <Dsolv>
14.276929

> <SolEl>
6.011445

> <Eintl>
3.723036

> <RecConf>
ND

> <projPath>
Cereblon_maps/

> <NAME_>
Cereblon_6VS3_1.pdb

$$$$
