Cereblon_5EDU_1.pdb
  MOLSOFT 04032206243D

 31 33  0  0  1  0  0  0  0  0999 V2000
   78.0685   40.6249   42.6754 N   0  0  0  0  0  0  0  0  0  0  0  0
   78.1287   41.7170   41.7944 C   0  0  0  0  0  0  0  0  0  0  0  0
   77.3066   41.8176   40.6802 C   0  0  0  0  0  0  0  0  0  0  0  0
   76.2390   40.9324   40.2206 C   0  0  0  0  0  0  0  0  0  0  0  0
   75.9866   39.8440   40.7179 O   0  0  0  0  0  0  0  0  0  0  0  0
   75.6247   41.5681   39.1572 N   0  0  0  0  0  0  0  0  0  0  0  0
   76.3549   42.6783   38.7826 C   0  0  0  0  0  0  0  0  0  0  0  0
   76.2574   43.3815   37.7883 O   0  0  0  0  0  0  0  0  0  0  0  0
   77.3876   42.8558   39.8030 C   0  0  0  0  0  0  0  0  0  0  0  0
   78.3320   43.8572   39.9392 C   0  0  0  0  0  0  0  0  0  0  0  0
   79.1944   43.7657   41.0242 C   0  0  0  0  0  0  0  0  0  0  0  0
   79.0905   42.7151   41.9374 C   0  0  0  0  0  0  0  0  0  0  0  0
   74.3804   41.0577   38.5534 C   0  0  1  0  0  0  0  0  0  0  0  0
   73.2369   41.3282   39.5219 C   0  0  0  0  0  0  0  0  0  0  0  0
   73.4070   41.6099   40.6956 O   0  0  0  0  0  0  0  0  0  0  0  0
   71.9697   41.1822   39.0163 N   0  0  0  0  0  0  0  0  0  0  0  0
   71.5992   40.9454   37.7176 C   0  0  0  0  0  0  0  0  0  0  0  0
   70.4395   40.6989   37.4237 O   0  0  0  0  0  0  0  0  0  0  0  0
   72.7210   40.9502   36.6998 C   0  0  0  0  0  0  0  0  0  0  0  0
   73.9551   41.6755   37.2212 C   0  0  0  0  0  0  0  0  0  0  0  0
   78.6454   40.6077   43.5153 H   0  0  0  0  0  0  0  0  0  0  0  0
   77.2688   39.9928   42.6169 H   0  0  0  0  0  0  0  0  0  0  0  0
   78.3961   44.6780   39.2334 H   0  0  0  0  0  0  0  0  0  0  0  0
   79.9534   44.5282   41.1690 H   0  0  0  0  0  0  0  0  0  0  0  0
   79.7770   42.6787   42.7775 H   0  0  0  0  0  0  0  0  0  0  0  0
   74.4795   39.9690   38.4690 H   0  0  0  0  0  0  0  0  0  0  0  0
   71.2152   41.2773   39.6837 H   0  0  0  0  0  0  0  0  0  0  0  0
   72.9602   39.9109   36.4510 H   0  0  0  0  0  0  0  0  0  0  0  0
   72.3629   41.4429   35.7899 H   0  0  0  0  0  0  0  0  0  0  0  0
   74.7530   41.6239   36.4793 H   0  0  0  0  0  0  0  0  0  0  0  0
   73.7210   42.7390   37.3496 H   0  0  0  0  0  0  0  0  0  0  0  0
  1  2  1  0  0  0  0
  1 21  1  0  0  0  0
  1 22  1  0  0  0  0
  2  3  1  0  0  0  0
  2 12  2  0  0  0  0
  3  9  2  0  0  0  0
  3  4  1  0  0  0  0
  4  5  2  0  0  0  0
  4  6  1  0  0  0  0
  6  7  1  0  0  0  0
 13  6  1  0  0  0  0
  7  8  2  0  0  0  0
  7  9  1  0  0  0  0
  9 10  1  0  0  0  0
 10 23  1  0  0  0  0
 10 11  2  0  0  0  0
 11 12  1  0  0  0  0
 11 24  1  0  0  0  0
 12 25  1  0  0  0  0
 13 26  1  0  0  0  0
 13 14  1  0  0  0  0
 13 20  1  0  0  0  0
 14 15  2  0  0  0  0
 14 16  1  0  0  0  0
 16 27  1  0  0  0  0
 16 17  1  0  0  0  0
 17 18  2  0  0  0  0
 17 19  1  0  0  0  0
 19 28  1  0  0  0  0
 19 29  1  0  0  0  0
 19 20  1  0  0  0  0
 20 30  1  0  0  0  0
 20 31  1  0  0  0  0
M  ZZC   1 n1
M  ZZC   2 c1
M  ZZC   3 c2
M  ZZC   4 c3
M  ZZC   5 o1
M  ZZC   6 n2
M  ZZC   7 c4
M  ZZC   8 o2
M  ZZC   9 c5
M  ZZC  10 c6
M  ZZC  11 c7
M  ZZC  12 c8
M  ZZC  13 c9
M  ZZC  14 c10
M  ZZC  15 o3
M  ZZC  16 n3
M  ZZC  17 c11
M  ZZC  18 o4
M  ZZC  19 c12
M  ZZC  20 c13
M  ZZC  21 h11
M  ZZC  22 h12
M  ZZC  23 h61
M  ZZC  24 h71
M  ZZC  25 h81
M  ZZC  26 h91
M  ZZC  27 h31
M  ZZC  28 h121
M  ZZC  29 h122
M  ZZC  30 h131
M  ZZC  31 h132
M  ZZM   1 40
M  ZZI   1 224
M  ZZM   2 37
M  ZZI   2 124
M  ZZM   3 37
M  ZZI   3 124
M  ZZM   4 3
M  ZZI   4 121
M  ZZM   5 7
M  ZZI   5 81
M  ZZM   6 10
M  ZZI   6 192
M  ZZM   7 3
M  ZZI   7 121
M  ZZM   8 7
M  ZZI   8 81
M  ZZM   9 37
M  ZZI   9 124
M  ZZM  10 37
M  ZZI  10 125
M  ZZM  11 37
M  ZZI  11 125
M  ZZM  12 37
M  ZZI  12 125
M  ZZM  13 1
M  ZZI  13 113
M  ZZM  14 3
M  ZZI  14 121
M  ZZM  15 7
M  ZZI  15 81
M  ZZM  16 10
M  ZZI  16 191
M  ZZM  17 3
M  ZZI  17 121
M  ZZM  18 7
M  ZZI  18 81
M  ZZM  19 1
M  ZZI  19 112
M  ZZM  20 1
M  ZZI  20 112
M  ZZM  21 28
M  ZZI  21 11
M  ZZM  22 28
M  ZZI  22 11
M  ZZM  23 5
M  ZZI  23 1
M  ZZM  24 5
M  ZZI  24 1
M  ZZM  25 5
M  ZZI  25 1
M  ZZM  26 5
M  ZZI  26 1
M  ZZM  27 28
M  ZZI  27 11
M  ZZM  28 5
M  ZZI  28 1
M  ZZM  29 5
M  ZZI  29 1
M  ZZM  30 5
M  ZZI  30 1
M  ZZM  31 5
M  ZZI  31 1
M  END
> <IX>
1

> <NAME>
Cereblon_5EDU_1.pdb

> <Score>
-14.348297

> <Natom>
31

> <Nflex>
1

> <Hbond>
-2.7355

> <Hphob>
-3.725796

> <VwInt>
-27.008077

> <Dsolv>
17.267669

> <SolEl>
7.581967

> <Eintl>
5.870047

> <RecConf>
ND

> <projPath>
Cereblon_maps/

> <NAME_>
Cereblon_5EDU_1.pdb

$$$$
