Cereblon_6YOJ_9.pdb
  MOLSOFT 04032206303D

 29 31  0  0  1  0  0  0  0  0999 V2000
   79.0048   42.4917   42.6727 C   0  0  0  0  0  0  0  0  0  0  0  0
   78.1864   42.1964   41.5968 C   0  0  0  0  0  0  0  0  0  0  0  0
   77.2686   41.0782   41.4119 C   0  0  0  0  0  0  0  0  0  0  0  0
   77.0874   40.2187   42.2606 O   0  0  0  0  0  0  0  0  0  0  0  0
   76.7281   41.2192   40.1467 N   0  0  0  0  0  0  0  0  0  0  0  0
   77.2237   42.3466   39.5234 C   0  0  0  0  0  0  0  0  0  0  0  0
   76.9881   42.7648   38.3972 O   0  0  0  0  0  0  0  0  0  0  0  0
   78.1589   42.9587   40.4679 C   0  0  0  0  0  0  0  0  0  0  0  0
   78.9579   44.0748   40.3250 C   0  0  0  0  0  0  0  0  0  0  0  0
   79.8012   44.3841   41.3860 C   0  0  0  0  0  0  0  0  0  0  0  0
   79.8246   43.6065   42.5448 C   0  0  0  0  0  0  0  0  0  0  0  0
   75.7198   40.3649   39.5140 C   0  0  2  0  0  0  0  0  0  0  0  0
   74.3400   40.9345   39.8023 C   0  0  0  0  0  0  0  0  0  0  0  0
   74.1531   42.1206   40.0170 O   0  0  0  0  0  0  0  0  0  0  0  0
   73.2892   40.0528   39.7277 N   0  0  0  0  0  0  0  0  0  0  0  0
   73.3270   38.7072   39.4567 C   0  0  0  0  0  0  0  0  0  0  0  0
   72.3110   38.0342   39.3993 O   0  0  0  0  0  0  0  0  0  0  0  0
   74.6915   38.1252   39.1799 C   0  0  0  0  0  0  0  0  0  0  0  0
   75.7737   38.8947   39.9163 C   0  0  0  0  0  0  0  0  0  0  0  0
   79.0153   41.8770   43.5687 H   0  0  0  0  0  0  0  0  0  0  0  0
   78.9271   44.6754   39.4235 H   0  0  0  0  0  0  0  0  0  0  0  0
   80.4505   45.2489   41.3153 H   0  0  0  0  0  0  0  0  0  0  0  0
   80.4927   43.8752   43.3582 H   0  0  0  0  0  0  0  0  0  0  0  0
   75.8588   40.4517   38.4344 H   0  0  0  0  0  0  0  0  0  0  0  0
   72.3711   40.4471   39.8912 H   0  0  0  0  0  0  0  0  0  0  0  0
   74.6979   37.0795   39.5034 H   0  0  0  0  0  0  0  0  0  0  0  0
   74.8532   38.1470   38.0979 H   0  0  0  0  0  0  0  0  0  0  0  0
   76.7589   38.4728   39.6928 H   0  0  0  0  0  0  0  0  0  0  0  0
   75.6110   38.7758   40.9913 H   0  0  0  0  0  0  0  0  0  0  0  0
  1 20  1  0  0  0  0
  1  2  1  0  0  0  0
  1 11  2  0  0  0  0
  2  3  1  0  0  0  0
  2  8  2  0  0  0  0
  3  4  2  0  0  0  0
  3  5  1  0  0  0  0
  5  6  1  0  0  0  0
 12  5  1  0  0  0  0
  6  7  2  0  0  0  0
  6  8  1  0  0  0  0
  8  9  1  0  0  0  0
  9 21  1  0  0  0  0
  9 10  2  0  0  0  0
 10 22  1  0  0  0  0
 10 11  1  0  0  0  0
 11 23  1  0  0  0  0
 12 24  1  0  0  0  0
 12 13  1  0  0  0  0
 12 19  1  0  0  0  0
 13 14  2  0  0  0  0
 13 15  1  0  0  0  0
 15 25  1  0  0  0  0
 15 16  1  0  0  0  0
 16 17  2  0  0  0  0
 16 18  1  0  0  0  0
 18 26  1  0  0  0  0
 18 27  1  0  0  0  0
 18 19  1  0  0  0  0
 19 28  1  0  0  0  0
 19 29  1  0  0  0  0
M  ZZC   1 c1
M  ZZC   2 c2
M  ZZC   3 c3
M  ZZC   4 o1
M  ZZC   5 n1
M  ZZC   6 c4
M  ZZC   7 o2
M  ZZC   8 c5
M  ZZC   9 c6
M  ZZC  10 c7
M  ZZC  11 c8
M  ZZC  12 c9
M  ZZC  13 c10
M  ZZC  14 o3
M  ZZC  15 n2
M  ZZC  16 c11
M  ZZC  17 o4
M  ZZC  18 c12
M  ZZC  19 c13
M  ZZC  20 h11
M  ZZC  21 h61
M  ZZC  22 h71
M  ZZC  23 h81
M  ZZC  24 h91
M  ZZC  25 h21
M  ZZC  26 h121
M  ZZC  27 h122
M  ZZC  28 h131
M  ZZC  29 h132
M  ZZM   1 37
M  ZZI   1 125
M  ZZM   2 37
M  ZZI   2 124
M  ZZM   3 3
M  ZZI   3 121
M  ZZM   4 7
M  ZZI   4 81
M  ZZM   5 10
M  ZZI   5 192
M  ZZM   6 3
M  ZZI   6 121
M  ZZM   7 7
M  ZZI   7 81
M  ZZM   8 37
M  ZZI   8 124
M  ZZM   9 37
M  ZZI   9 125
M  ZZM  10 37
M  ZZI  10 125
M  ZZM  11 37
M  ZZI  11 125
M  ZZM  12 1
M  ZZI  12 113
M  ZZM  13 3
M  ZZI  13 121
M  ZZM  14 7
M  ZZI  14 81
M  ZZM  15 10
M  ZZI  15 191
M  ZZM  16 3
M  ZZI  16 121
M  ZZM  17 7
M  ZZI  17 81
M  ZZM  18 1
M  ZZI  18 112
M  ZZM  19 1
M  ZZI  19 112
M  ZZM  20 5
M  ZZI  20 1
M  ZZM  21 5
M  ZZI  21 1
M  ZZM  22 5
M  ZZI  22 1
M  ZZM  23 5
M  ZZI  23 1
M  ZZM  24 5
M  ZZI  24 1
M  ZZM  25 28
M  ZZI  25 11
M  ZZM  26 5
M  ZZI  26 1
M  ZZM  27 5
M  ZZI  27 1
M  ZZM  28 5
M  ZZI  28 1
M  ZZM  29 5
M  ZZI  29 1
M  END
> <IX>
1

> <NAME>
Cereblon_6YOJ_9.pdb

> <Score>
-19.429903

> <Natom>
29

> <Nflex>
1

> <Hbond>
-3.361442

> <Hphob>
-3.549134

> <VwInt>
-22.716612

> <Dsolv>
12.005037

> <SolEl>
5.566269

> <Eintl>
1.485935

> <RecConf>
ND

> <projPath>
Cereblon_maps/

> <NAME_>
Cereblon_6YOJ_9.pdb

$$$$
