Cereblon_5G0I_20.pdb
  MOLSOFT 04032206243D

 31 33  0  0  1  0  0  0  0  0999 V2000
   78.8146   41.6780   43.8214 N   0  0  0  0  0  0  0  0  0  0  0  0
   78.9079   42.4225   42.6350 C   0  0  0  0  0  0  0  0  0  0  0  0
   78.1015   42.1573   41.5407 C   0  0  0  0  0  0  0  0  0  0  0  0
   77.1803   41.0468   41.3337 C   0  0  0  0  0  0  0  0  0  0  0  0
   76.9999   40.1636   42.1590 O   0  0  0  0  0  0  0  0  0  0  0  0
   76.6459   41.2109   40.0717 N   0  0  0  0  0  0  0  0  0  0  0  0
   77.1673   42.3316   39.4575 C   0  0  0  0  0  0  0  0  0  0  0  0
   76.9547   42.7556   38.3289 O   0  0  0  0  0  0  0  0  0  0  0  0
   78.0990   42.9266   40.4170 C   0  0  0  0  0  0  0  0  0  0  0  0
   78.9105   44.0360   40.2963 C   0  0  0  0  0  0  0  0  0  0  0  0
   79.7259   44.3364   41.3814 C   0  0  0  0  0  0  0  0  0  0  0  0
   79.7124   43.5539   42.5374 C   0  0  0  0  0  0  0  0  0  0  0  0
   75.6268   40.3744   39.4339 C   0  0  2  0  0  0  0  0  0  0  0  0
   74.2551   40.9526   39.7382 C   0  0  0  0  0  0  0  0  0  0  0  0
   74.0821   42.1331   39.9920 O   0  0  0  0  0  0  0  0  0  0  0  0
   73.1948   40.0863   39.6276 N   0  0  0  0  0  0  0  0  0  0  0  0
   73.2205   38.7487   39.3139 C   0  0  0  0  0  0  0  0  0  0  0  0
   72.1959   38.0948   39.2072 O   0  0  0  0  0  0  0  0  0  0  0  0
   74.5833   38.1517   39.0579 C   0  0  0  0  0  0  0  0  0  0  0  0
   75.6605   38.8997   39.8227 C   0  0  0  0  0  0  0  0  0  0  0  0
   79.5556   41.7598   44.5144 H   0  0  0  0  0  0  0  0  0  0  0  0
   78.3226   40.7842   43.7792 H   0  0  0  0  0  0  0  0  0  0  0  0
   78.9039   44.6428   39.3986 H   0  0  0  0  0  0  0  0  0  0  0  0
   80.3740   45.2046   41.3372 H   0  0  0  0  0  0  0  0  0  0  0  0
   80.3444   43.8355   43.3742 H   0  0  0  0  0  0  0  0  0  0  0  0
   75.7613   40.4746   38.3557 H   0  0  0  0  0  0  0  0  0  0  0  0
   72.2799   40.4883   39.7901 H   0  0  0  0  0  0  0  0  0  0  0  0
   74.5695   37.1034   39.3728 H   0  0  0  0  0  0  0  0  0  0  0  0
   74.7695   38.1790   37.9801 H   0  0  0  0  0  0  0  0  0  0  0  0
   75.4756   38.7718   40.8934 H   0  0  0  0  0  0  0  0  0  0  0  0
   76.6446   38.4679   39.6143 H   0  0  0  0  0  0  0  0  0  0  0  0
  1  2  1  0  0  0  0
  1 21  1  0  0  0  0
  1 22  1  0  0  0  0
  2  3  1  0  0  0  0
  2 12  2  0  0  0  0
  3  9  2  0  0  0  0
  3  4  1  0  0  0  0
  4  5  2  0  0  0  0
  4  6  1  0  0  0  0
  6  7  1  0  0  0  0
 13  6  1  0  0  0  0
  7  8  2  0  0  0  0
  7  9  1  0  0  0  0
  9 10  1  0  0  0  0
 10 23  1  0  0  0  0
 10 11  2  0  0  0  0
 11 12  1  0  0  0  0
 11 24  1  0  0  0  0
 12 25  1  0  0  0  0
 13 26  1  0  0  0  0
 13 14  1  0  0  0  0
 13 20  1  0  0  0  0
 14 15  2  0  0  0  0
 14 16  1  0  0  0  0
 16 27  1  0  0  0  0
 16 17  1  0  0  0  0
 17 18  2  0  0  0  0
 17 19  1  0  0  0  0
 19 28  1  0  0  0  0
 19 29  1  0  0  0  0
 19 20  1  0  0  0  0
 20 30  1  0  0  0  0
 20 31  1  0  0  0  0
M  ZZC   1 n1
M  ZZC   2 c1
M  ZZC   3 c2
M  ZZC   4 c3
M  ZZC   5 o1
M  ZZC   6 n2
M  ZZC   7 c4
M  ZZC   8 o2
M  ZZC   9 c5
M  ZZC  10 c6
M  ZZC  11 c7
M  ZZC  12 c8
M  ZZC  13 c9
M  ZZC  14 c10
M  ZZC  15 o3
M  ZZC  16 n3
M  ZZC  17 c11
M  ZZC  18 o4
M  ZZC  19 c12
M  ZZC  20 c13
M  ZZC  21 h11
M  ZZC  22 h12
M  ZZC  23 h61
M  ZZC  24 h71
M  ZZC  25 h81
M  ZZC  26 h91
M  ZZC  27 h31
M  ZZC  28 h121
M  ZZC  29 h122
M  ZZC  30 h131
M  ZZC  31 h132
M  ZZM   1 40
M  ZZI   1 224
M  ZZM   2 37
M  ZZI   2 124
M  ZZM   3 37
M  ZZI   3 124
M  ZZM   4 3
M  ZZI   4 121
M  ZZM   5 7
M  ZZI   5 81
M  ZZM   6 10
M  ZZI   6 192
M  ZZM   7 3
M  ZZI   7 121
M  ZZM   8 7
M  ZZI   8 81
M  ZZM   9 37
M  ZZI   9 124
M  ZZM  10 37
M  ZZI  10 125
M  ZZM  11 37
M  ZZI  11 125
M  ZZM  12 37
M  ZZI  12 125
M  ZZM  13 1
M  ZZI  13 113
M  ZZM  14 3
M  ZZI  14 121
M  ZZM  15 7
M  ZZI  15 81
M  ZZM  16 10
M  ZZI  16 191
M  ZZM  17 3
M  ZZI  17 121
M  ZZM  18 7
M  ZZI  18 81
M  ZZM  19 1
M  ZZI  19 112
M  ZZM  20 1
M  ZZI  20 112
M  ZZM  21 28
M  ZZI  21 11
M  ZZM  22 28
M  ZZI  22 11
M  ZZM  23 5
M  ZZI  23 1
M  ZZM  24 5
M  ZZI  24 1
M  ZZM  25 5
M  ZZI  25 1
M  ZZM  26 5
M  ZZI  26 1
M  ZZM  27 28
M  ZZI  27 11
M  ZZM  28 5
M  ZZI  28 1
M  ZZM  29 5
M  ZZI  29 1
M  ZZM  30 5
M  ZZI  30 1
M  ZZM  31 5
M  ZZI  31 1
M  END
> <IX>
1

> <NAME>
Cereblon_5G0I_20.pdb

> <Score>
-18.549202

> <Natom>
31

> <Nflex>
1

> <Hbond>
-3.676644

> <Hphob>
-3.571833

> <VwInt>
-24.245624

> <Dsolv>
15.104452

> <SolEl>
6.75219

> <Eintl>
1.67779

> <RecConf>
ND

> <projPath>
Cereblon_maps/

> <NAME_>
Cereblon_5G0I_20.pdb

$$$$
