Cereblon_5VBP_31.pdb
  MOLSOFT 04032206283D

 30 32  0  0  1  0  0  0  0  0999 V2000
   81.7189   54.1292   19.5995 C   0  0  0  0  0  0  0  0  0  0  0  0
   81.0381   55.0387   20.3910 C   0  0  0  0  0  0  0  0  0  0  0  0
   81.5507   56.2889   20.6013 C   0  0  0  0  0  0  0  0  0  0  0  0
   80.6595   57.0102   21.5117 C   0  0  0  0  0  0  0  0  0  0  0  0
   80.8555   58.1561   21.8902 O   0  0  0  0  0  0  0  0  0  0  0  0
   79.6353   56.1373   21.8252 N   0  0  0  0  0  0  0  0  0  0  0  0
   78.5067   56.3986   22.7215 C   0  0  2  0  0  0  0  0  0  0  0  0
   77.3805   57.1450   22.0288 C   0  0  0  0  0  0  0  0  0  0  0  0
   77.2188   57.1600   20.8175 O   0  0  0  0  0  0  0  0  0  0  0  0
   76.4719   57.7258   22.8824 N   0  0  0  0  0  0  0  0  0  0  0  0
   76.4790   57.7640   24.2557 C   0  0  0  0  0  0  0  0  0  0  0  0
   75.5375   58.2102   24.8912 O   0  0  0  0  0  0  0  0  0  0  0  0
   77.6937   57.1752   24.9310 C   0  0  0  0  0  0  0  0  0  0  0  0
   78.8834   57.1584   23.9915 C   0  0  0  0  0  0  0  0  0  0  0  0
   79.7467   54.8810   21.1059 C   0  0  0  0  0  0  0  0  0  0  0  0
   82.7340   56.7249   20.0377 C   0  0  0  0  0  0  0  0  0  0  0  0
   83.4093   55.8254   19.2275 C   0  0  0  0  0  0  0  0  0  0  0  0
   82.9115   54.5401   19.0179 C   0  0  0  0  0  0  0  0  0  0  0  0
   81.3335   53.1276   19.4312 H   0  0  0  0  0  0  0  0  0  0  0  0
   78.1035   55.4198   22.9951 H   0  0  0  0  0  0  0  0  0  0  0  0
   75.6878   58.1824   22.4369 H   0  0  0  0  0  0  0  0  0  0  0  0
   77.9284   57.7713   25.8187 H   0  0  0  0  0  0  0  0  0  0  0  0
   77.4492   56.1621   25.2573 H   0  0  0  0  0  0  0  0  0  0  0  0
   79.1715   58.1897   23.7605 H   0  0  0  0  0  0  0  0  0  0  0  0
   79.7405   56.6957   24.4880 H   0  0  0  0  0  0  0  0  0  0  0  0
   78.9088   54.7871   20.4094 H   0  0  0  0  0  0  0  0  0  0  0  0
   79.7602   54.0454   21.8115 H   0  0  0  0  0  0  0  0  0  0  0  0
   83.1221   57.7214   20.2252 H   0  0  0  0  0  0  0  0  0  0  0  0
   84.3408   56.1310   18.7620 H   0  0  0  0  0  0  0  0  0  0  0  0
   83.4616   53.8483   18.3875 H   0  0  0  0  0  0  0  0  0  0  0  0
  1 19  1  0  0  0  0
  1 18  2  0  0  0  0
  1  2  1  0  0  0  0
  2  3  2  0  0  0  0
  2 15  1  0  0  0  0
  3 16  1  0  0  0  0
  3  4  1  0  0  0  0
  4  6  1  0  0  0  0
  4  5  2  0  0  0  0
  6 15  1  0  0  0  0
  7  6  1  0  0  0  0
  7 20  1  0  0  0  0
  7  8  1  0  0  0  0
  7 14  1  0  0  0  0
  8  9  2  0  0  0  0
  8 10  1  0  0  0  0
 10 21  1  0  0  0  0
 10 11  1  0  0  0  0
 11 12  2  0  0  0  0
 11 13  1  0  0  0  0
 13 22  1  0  0  0  0
 13 23  1  0  0  0  0
 13 14  1  0  0  0  0
 14 24  1  0  0  0  0
 14 25  1  0  0  0  0
 15 26  1  0  0  0  0
 15 27  1  0  0  0  0
 16 17  2  0  0  0  0
 16 28  1  0  0  0  0
 17 18  1  0  0  0  0
 17 29  1  0  0  0  0
 18 30  1  0  0  0  0
M  ZZC   1 c1
M  ZZC   2 c2
M  ZZC   3 c3
M  ZZC   4 c4
M  ZZC   5 o1
M  ZZC   6 n1
M  ZZC   7 c5
M  ZZC   8 c6
M  ZZC   9 o2
M  ZZC  10 n2
M  ZZC  11 c7
M  ZZC  12 o3
M  ZZC  13 c8
M  ZZC  14 c9
M  ZZC  15 c10
M  ZZC  16 c11
M  ZZC  17 c12
M  ZZC  18 c13
M  ZZC  19 h11
M  ZZC  20 h51
M  ZZC  21 h21
M  ZZC  22 h81
M  ZZC  23 h82
M  ZZC  24 h91
M  ZZC  25 h92
M  ZZC  26 h101
M  ZZC  27 h102
M  ZZC  28 h111
M  ZZC  29 h121
M  ZZC  30 h131
M  ZZM   1 37
M  ZZI   1 125
M  ZZM   2 37
M  ZZI   2 124
M  ZZM   3 37
M  ZZI   3 124
M  ZZM   4 3
M  ZZI   4 121
M  ZZM   5 7
M  ZZI   5 81
M  ZZM   6 10
M  ZZI   6 192
M  ZZM   7 1
M  ZZI   7 113
M  ZZM   8 3
M  ZZI   8 121
M  ZZM   9 7
M  ZZI   9 81
M  ZZM  10 10
M  ZZI  10 191
M  ZZM  11 3
M  ZZI  11 121
M  ZZM  12 7
M  ZZI  12 81
M  ZZM  13 1
M  ZZI  13 112
M  ZZM  14 1
M  ZZI  14 112
M  ZZM  15 1
M  ZZI  15 112
M  ZZM  16 37
M  ZZI  16 125
M  ZZM  17 37
M  ZZI  17 125
M  ZZM  18 37
M  ZZI  18 125
M  ZZM  19 5
M  ZZI  19 1
M  ZZM  20 5
M  ZZI  20 1
M  ZZM  21 28
M  ZZI  21 11
M  ZZM  22 5
M  ZZI  22 1
M  ZZM  23 5
M  ZZI  23 1
M  ZZM  24 5
M  ZZI  24 1
M  ZZM  25 5
M  ZZI  25 1
M  ZZM  26 5
M  ZZI  26 1
M  ZZM  27 5
M  ZZI  27 1
M  ZZM  28 5
M  ZZI  28 1
M  ZZM  29 5
M  ZZI  29 1
M  ZZM  30 5
M  ZZI  30 1
M  END
> <IX>
1

> <NAME>
Cereblon_5VBP_31.pdb

> <Score>
-14.155543

> <Natom>
30

> <Nflex>
1

> <Hbond>
-0.482014

> <Hphob>
-3.708542

> <VwInt>
-19.982183

> <Dsolv>
9.762125

> <SolEl>
0.447042

> <Eintl>
2.190363

> <RecConf>
ND

> <projPath>
Cereblon_maps/

> <NAME_>
Cereblon_5VBP_31.pdb

$$$$
