Cereblon_1HWK_1.pdb
  MOLSOFT 04032206193D

 31 33  0  0  1  0  0  0  0  0999 V2000
   49.5496   61.2746   45.8859 N   0  0  0  0  0  0  0  0  0  0  0  0
   48.8595   60.1805   46.4301 C   0  0  0  0  0  0  0  0  0  0  0  0
   48.4838   59.0897   45.6655 C   0  0  0  0  0  0  0  0  0  0  0  0
   48.8198   58.7829   44.2811 C   0  0  0  0  0  0  0  0  0  0  0  0
   49.4398   59.5321   43.5417 O   0  0  0  0  0  0  0  0  0  0  0  0
   48.3433   57.5160   44.0330 N   0  0  0  0  0  0  0  0  0  0  0  0
   47.7037   57.0017   45.1436 C   0  0  0  0  0  0  0  0  0  0  0  0
   47.1910   55.9055   45.3149 O   0  0  0  0  0  0  0  0  0  0  0  0
   47.7984   58.0307   46.1799 C   0  0  0  0  0  0  0  0  0  0  0  0
   47.3807   58.0002   47.4972 C   0  0  0  0  0  0  0  0  0  0  0  0
   47.6977   59.1060   48.2777 C   0  0  0  0  0  0  0  0  0  0  0  0
   48.4199   60.1790   47.7506 C   0  0  0  0  0  0  0  0  0  0  0  0
   48.6666   56.7889   42.8029 C   0  0  1  0  0  0  0  0  0  0  0  0
   49.8342   55.8588   43.0962 C   0  0  0  0  0  0  0  0  0  0  0  0
   50.6306   56.0668   44.0000 O   0  0  0  0  0  0  0  0  0  0  0  0
   49.9840   54.8001   42.2304 N   0  0  0  0  0  0  0  0  0  0  0  0
   49.1683   54.4468   41.1780 C   0  0  0  0  0  0  0  0  0  0  0  0
   49.3963   53.4846   40.4634 O   0  0  0  0  0  0  0  0  0  0  0  0
   47.9888   55.3528   40.9172 C   0  0  0  0  0  0  0  0  0  0  0  0
   47.5091   56.0088   42.1972 C   0  0  0  0  0  0  0  0  0  0  0  0
   50.1202   61.8165   46.5322 H   0  0  0  0  0  0  0  0  0  0  0  0
   49.9078   61.1728   44.9324 H   0  0  0  0  0  0  0  0  0  0  0  0
   46.8457   57.1495   47.9073 H   0  0  0  0  0  0  0  0  0  0  0  0
   47.3927   59.1306   49.3196 H   0  0  0  0  0  0  0  0  0  0  0  0
   48.6574   61.0217   48.3931 H   0  0  0  0  0  0  0  0  0  0  0  0
   49.0339   57.5192   42.0725 H   0  0  0  0  0  0  0  0  0  0  0  0
   50.7873   54.2042   42.4024 H   0  0  0  0  0  0  0  0  0  0  0  0
   48.2954   56.1071   40.1849 H   0  0  0  0  0  0  0  0  0  0  0  0
   47.1805   54.7585   40.4790 H   0  0  0  0  0  0  0  0  0  0  0  0
   46.6683   56.6776   41.9853 H   0  0  0  0  0  0  0  0  0  0  0  0
   47.1464   55.2370   42.8851 H   0  0  0  0  0  0  0  0  0  0  0  0
  1  2  1  0  0  0  0
  1 21  1  0  0  0  0
  1 22  1  0  0  0  0
  2  3  1  0  0  0  0
  2 12  2  0  0  0  0
  3  9  2  0  0  0  0
  3  4  1  0  0  0  0
  4  5  2  0  0  0  0
  4  6  1  0  0  0  0
  6  7  1  0  0  0  0
 13  6  1  0  0  0  0
  7  8  2  0  0  0  0
  7  9  1  0  0  0  0
  9 10  1  0  0  0  0
 10 23  1  0  0  0  0
 10 11  2  0  0  0  0
 11 12  1  0  0  0  0
 11 24  1  0  0  0  0
 12 25  1  0  0  0  0
 13 26  1  0  0  0  0
 13 14  1  0  0  0  0
 13 20  1  0  0  0  0
 14 15  2  0  0  0  0
 14 16  1  0  0  0  0
 16 27  1  0  0  0  0
 16 17  1  0  0  0  0
 17 18  2  0  0  0  0
 17 19  1  0  0  0  0
 19 28  1  0  0  0  0
 19 29  1  0  0  0  0
 19 20  1  0  0  0  0
 20 30  1  0  0  0  0
 20 31  1  0  0  0  0
M  ZZC   1 n1
M  ZZC   2 c1
M  ZZC   3 c2
M  ZZC   4 c3
M  ZZC   5 o1
M  ZZC   6 n2
M  ZZC   7 c4
M  ZZC   8 o2
M  ZZC   9 c5
M  ZZC  10 c6
M  ZZC  11 c7
M  ZZC  12 c8
M  ZZC  13 c9
M  ZZC  14 c10
M  ZZC  15 o3
M  ZZC  16 n3
M  ZZC  17 c11
M  ZZC  18 o4
M  ZZC  19 c12
M  ZZC  20 c13
M  ZZC  21 h11
M  ZZC  22 h12
M  ZZC  23 h61
M  ZZC  24 h71
M  ZZC  25 h81
M  ZZC  26 h91
M  ZZC  27 h31
M  ZZC  28 h121
M  ZZC  29 h122
M  ZZC  30 h131
M  ZZC  31 h132
M  ZZM   1 40
M  ZZI   1 224
M  ZZM   2 37
M  ZZI   2 124
M  ZZM   3 37
M  ZZI   3 124
M  ZZM   4 3
M  ZZI   4 121
M  ZZM   5 7
M  ZZI   5 81
M  ZZM   6 10
M  ZZI   6 192
M  ZZM   7 3
M  ZZI   7 121
M  ZZM   8 7
M  ZZI   8 81
M  ZZM   9 37
M  ZZI   9 124
M  ZZM  10 37
M  ZZI  10 125
M  ZZM  11 37
M  ZZI  11 125
M  ZZM  12 37
M  ZZI  12 125
M  ZZM  13 1
M  ZZI  13 113
M  ZZM  14 3
M  ZZI  14 121
M  ZZM  15 7
M  ZZI  15 81
M  ZZM  16 10
M  ZZI  16 191
M  ZZM  17 3
M  ZZI  17 121
M  ZZM  18 7
M  ZZI  18 81
M  ZZM  19 1
M  ZZI  19 112
M  ZZM  20 1
M  ZZI  20 112
M  ZZM  21 28
M  ZZI  21 11
M  ZZM  22 28
M  ZZI  22 11
M  ZZM  23 5
M  ZZI  23 1
M  ZZM  24 5
M  ZZI  24 1
M  ZZM  25 5
M  ZZI  25 1
M  ZZM  26 5
M  ZZI  26 1
M  ZZM  27 28
M  ZZI  27 11
M  ZZM  28 5
M  ZZI  28 1
M  ZZM  29 5
M  ZZI  29 1
M  ZZM  30 5
M  ZZI  30 1
M  ZZM  31 5
M  ZZI  31 1
M  END
> <IX>
1

> <NAME>
Cereblon_1HWK_1.pdb

> <Score>
-17.770283

> <Natom>
31

> <Nflex>
1

> <Hbond>
-6.504289

> <Hphob>
-2.467424

> <VwInt>
-18.883859

> <Dsolv>
16.083642

> <SolEl>
8.672623

> <Eintl>
1.393232

> <RecConf>
ND

> <projPath>
Cereblon_maps/

> <NAME_>
Cereblon_1HWK_1.pdb

$$$$
