Cereblon_6YOJ_7.pdb
  MOLSOFT 04032206303D

 29 31  0  0  1  0  0  0  0  0999 V2000
   78.9565   44.0753   40.3235 C   0  0  0  0  0  0  0  0  0  0  0  0
   78.1586   42.9587   40.4667 C   0  0  0  0  0  0  0  0  0  0  0  0
   77.2250   42.3446   39.5220 C   0  0  0  0  0  0  0  0  0  0  0  0
   76.9848   42.7701   38.3996 O   0  0  0  0  0  0  0  0  0  0  0  0
   76.7287   41.2189   40.1466 N   0  0  0  0  0  0  0  0  0  0  0  0
   77.2690   41.0777   41.4116 C   0  0  0  0  0  0  0  0  0  0  0  0
   77.0884   40.2187   42.2609 O   0  0  0  0  0  0  0  0  0  0  0  0
   78.1858   42.1969   41.5961 C   0  0  0  0  0  0  0  0  0  0  0  0
   79.0042   42.4929   42.6718 C   0  0  0  0  0  0  0  0  0  0  0  0
   79.8224   43.6088   42.5446 C   0  0  0  0  0  0  0  0  0  0  0  0
   79.7987   44.3857   41.3857 C   0  0  0  0  0  0  0  0  0  0  0  0
   75.7193   40.3647   39.5141 C   0  0  2  0  0  0  0  0  0  0  0  0
   74.3389   40.9329   39.8032 C   0  0  0  0  0  0  0  0  0  0  0  0
   74.1516   42.1190   40.0176 O   0  0  0  0  0  0  0  0  0  0  0  0
   73.2877   40.0516   39.7264 N   0  0  0  0  0  0  0  0  0  0  0  0
   73.3262   38.7056   39.4564 C   0  0  0  0  0  0  0  0  0  0  0  0
   72.3112   38.0311   39.3991 O   0  0  0  0  0  0  0  0  0  0  0  0
   74.6915   38.1252   39.1799 C   0  0  0  0  0  0  0  0  0  0  0  0
   75.7739   38.8945   39.9161 C   0  0  0  0  0  0  0  0  0  0  0  0
   78.9255   44.6765   39.4220 H   0  0  0  0  0  0  0  0  0  0  0  0
   79.0165   41.8779   43.5680 H   0  0  0  0  0  0  0  0  0  0  0  0
   80.4909   43.8785   43.3579 H   0  0  0  0  0  0  0  0  0  0  0  0
   80.4478   45.2511   41.3157 H   0  0  0  0  0  0  0  0  0  0  0  0
   75.8590   40.4515   38.4348 H   0  0  0  0  0  0  0  0  0  0  0  0
   72.3697   40.4462   39.8894 H   0  0  0  0  0  0  0  0  0  0  0  0
   74.6982   37.0793   39.5025 H   0  0  0  0  0  0  0  0  0  0  0  0
   74.8526   38.1460   38.0976 H   0  0  0  0  0  0  0  0  0  0  0  0
   76.7588   38.4721   39.6923 H   0  0  0  0  0  0  0  0  0  0  0  0
   75.6118   38.7749   40.9913 H   0  0  0  0  0  0  0  0  0  0  0  0
  1 20  1  0  0  0  0
  1  2  1  0  0  0  0
  1 11  2  0  0  0  0
  2  3  1  0  0  0  0
  2  8  2  0  0  0  0
  3  4  2  0  0  0  0
  3  5  1  0  0  0  0
  5  6  1  0  0  0  0
 12  5  1  0  0  0  0
  6  7  2  0  0  0  0
  6  8  1  0  0  0  0
  8  9  1  0  0  0  0
  9 21  1  0  0  0  0
  9 10  2  0  0  0  0
 10 22  1  0  0  0  0
 10 11  1  0  0  0  0
 11 23  1  0  0  0  0
 12 24  1  0  0  0  0
 12 13  1  0  0  0  0
 12 19  1  0  0  0  0
 13 14  2  0  0  0  0
 13 15  1  0  0  0  0
 15 25  1  0  0  0  0
 15 16  1  0  0  0  0
 16 17  2  0  0  0  0
 16 18  1  0  0  0  0
 18 26  1  0  0  0  0
 18 27  1  0  0  0  0
 18 19  1  0  0  0  0
 19 28  1  0  0  0  0
 19 29  1  0  0  0  0
M  ZZC   1 c1
M  ZZC   2 c2
M  ZZC   3 c3
M  ZZC   4 o1
M  ZZC   5 n1
M  ZZC   6 c4
M  ZZC   7 o2
M  ZZC   8 c5
M  ZZC   9 c6
M  ZZC  10 c7
M  ZZC  11 c8
M  ZZC  12 c9
M  ZZC  13 c10
M  ZZC  14 o3
M  ZZC  15 n2
M  ZZC  16 c11
M  ZZC  17 o4
M  ZZC  18 c12
M  ZZC  19 c13
M  ZZC  20 h11
M  ZZC  21 h61
M  ZZC  22 h71
M  ZZC  23 h81
M  ZZC  24 h91
M  ZZC  25 h21
M  ZZC  26 h121
M  ZZC  27 h122
M  ZZC  28 h131
M  ZZC  29 h132
M  ZZM   1 37
M  ZZI   1 125
M  ZZM   2 37
M  ZZI   2 124
M  ZZM   3 3
M  ZZI   3 121
M  ZZM   4 7
M  ZZI   4 81
M  ZZM   5 10
M  ZZI   5 192
M  ZZM   6 3
M  ZZI   6 121
M  ZZM   7 7
M  ZZI   7 81
M  ZZM   8 37
M  ZZI   8 124
M  ZZM   9 37
M  ZZI   9 125
M  ZZM  10 37
M  ZZI  10 125
M  ZZM  11 37
M  ZZI  11 125
M  ZZM  12 1
M  ZZI  12 113
M  ZZM  13 3
M  ZZI  13 121
M  ZZM  14 7
M  ZZI  14 81
M  ZZM  15 10
M  ZZI  15 191
M  ZZM  16 3
M  ZZI  16 121
M  ZZM  17 7
M  ZZI  17 81
M  ZZM  18 1
M  ZZI  18 112
M  ZZM  19 1
M  ZZI  19 112
M  ZZM  20 5
M  ZZI  20 1
M  ZZM  21 5
M  ZZI  21 1
M  ZZM  22 5
M  ZZI  22 1
M  ZZM  23 5
M  ZZI  23 1
M  ZZM  24 5
M  ZZI  24 1
M  ZZM  25 28
M  ZZI  25 11
M  ZZM  26 5
M  ZZI  26 1
M  ZZM  27 5
M  ZZI  27 1
M  ZZM  28 5
M  ZZI  28 1
M  ZZM  29 5
M  ZZI  29 1
M  END
> <IX>
1

> <NAME>
Cereblon_6YOJ_7.pdb

> <Score>
-19.280956

> <Natom>
29

> <Nflex>
1

> <Hbond>
-3.374616

> <Hphob>
-3.59934

> <VwInt>
-22.561949

> <Dsolv>
12.083155

> <SolEl>
5.611593

> <Eintl>
1.440517

> <RecConf>
ND

> <projPath>
Cereblon_maps/

> <NAME_>
Cereblon_6YOJ_7.pdb

$$$$
