Cereblon_1FKH_7.pdb
  MOLSOFT 04032206193D

 30 32  0  0  1  0  0  0  0  0999 V2000
   75.6648   37.9057   39.7374 C   0  0  0  0  0  0  0  0  0  0  0  0
   74.9746   39.0094   39.2627 C   0  0  0  0  0  0  0  0  0  0  0  0
   75.2929   40.2593   39.7137 C   0  0  0  0  0  0  0  0  0  0  0  0
   74.4114   41.2236   39.0530 C   0  0  0  0  0  0  0  0  0  0  0  0
   74.4196   42.4180   39.3093 O   0  0  0  0  0  0  0  0  0  0  0  0
   73.6357   40.5071   38.1538 N   0  0  0  0  0  0  0  0  0  0  0  0
   72.6039   41.0357   37.2471 C   0  0  1  0  0  0  0  0  0  0  0  0
   71.2810   41.2564   37.9814 C   0  0  0  0  0  0  0  0  0  0  0  0
   70.9219   40.5797   38.9341 O   0  0  0  0  0  0  0  0  0  0  0  0
   70.4436   42.2088   37.4452 N   0  0  0  0  0  0  0  0  0  0  0  0
   70.6552   43.0406   36.3781 C   0  0  0  0  0  0  0  0  0  0  0  0
   69.8516   43.9119   36.0826 O   0  0  0  0  0  0  0  0  0  0  0  0
   71.9165   42.7842   35.5945 C   0  0  0  0  0  0  0  0  0  0  0  0
   73.0336   42.3004   36.5045 C   0  0  0  0  0  0  0  0  0  0  0  0
   73.8680   39.0771   38.2723 C   0  0  0  0  0  0  0  0  0  0  0  0
   76.2984   40.5002   40.6323 C   0  0  0  0  0  0  0  0  0  0  0  0
   76.9934   39.3991   41.1098 C   0  0  0  0  0  0  0  0  0  0  0  0
   76.6783   38.1179   40.6650 C   0  0  0  0  0  0  0  0  0  0  0  0
   75.4304   36.9027   39.3945 H   0  0  0  0  0  0  0  0  0  0  0  0
   72.4132   40.2560   36.5002 H   0  0  0  0  0  0  0  0  0  0  0  0
   69.5701   42.3558   37.9322 H   0  0  0  0  0  0  0  0  0  0  0  0
   71.6970   42.0507   34.8113 H   0  0  0  0  0  0  0  0  0  0  0  0
   72.2132   43.7184   35.1134 H   0  0  0  0  0  0  0  0  0  0  0  0
   73.9356   42.1044   35.9159 H   0  0  0  0  0  0  0  0  0  0  0  0
   73.2878   43.1007   37.2047 H   0  0  0  0  0  0  0  0  0  0  0  0
   74.1580   38.6663   37.2997 H   0  0  0  0  0  0  0  0  0  0  0  0
   72.9619   38.5899   38.6483 H   0  0  0  0  0  0  0  0  0  0  0  0
   76.5443   41.5056   40.9589 H   0  0  0  0  0  0  0  0  0  0  0  0
   77.7904   39.5402   41.8336 H   0  0  0  0  0  0  0  0  0  0  0  0
   77.2365   37.2699   41.0487 H   0  0  0  0  0  0  0  0  0  0  0  0
  1 19  1  0  0  0  0
  1 18  2  0  0  0  0
  1  2  1  0  0  0  0
  2  3  2  0  0  0  0
  2 15  1  0  0  0  0
  3 16  1  0  0  0  0
  3  4  1  0  0  0  0
  4  6  1  0  0  0  0
  4  5  2  0  0  0  0
  6 15  1  0  0  0  0
  7  6  1  0  0  0  0
  7 20  1  0  0  0  0
  7  8  1  0  0  0  0
  7 14  1  0  0  0  0
  8  9  2  0  0  0  0
  8 10  1  0  0  0  0
 10 21  1  0  0  0  0
 10 11  1  0  0  0  0
 11 12  2  0  0  0  0
 11 13  1  0  0  0  0
 13 22  1  0  0  0  0
 13 23  1  0  0  0  0
 13 14  1  0  0  0  0
 14 24  1  0  0  0  0
 14 25  1  0  0  0  0
 15 26  1  0  0  0  0
 15 27  1  0  0  0  0
 16 17  2  0  0  0  0
 16 28  1  0  0  0  0
 17 18  1  0  0  0  0
 17 29  1  0  0  0  0
 18 30  1  0  0  0  0
M  ZZC   1 c1
M  ZZC   2 c2
M  ZZC   3 c3
M  ZZC   4 c4
M  ZZC   5 o1
M  ZZC   6 n1
M  ZZC   7 c5
M  ZZC   8 c6
M  ZZC   9 o2
M  ZZC  10 n2
M  ZZC  11 c7
M  ZZC  12 o3
M  ZZC  13 c8
M  ZZC  14 c9
M  ZZC  15 c10
M  ZZC  16 c11
M  ZZC  17 c12
M  ZZC  18 c13
M  ZZC  19 h11
M  ZZC  20 h51
M  ZZC  21 h21
M  ZZC  22 h81
M  ZZC  23 h82
M  ZZC  24 h91
M  ZZC  25 h92
M  ZZC  26 h101
M  ZZC  27 h102
M  ZZC  28 h111
M  ZZC  29 h121
M  ZZC  30 h131
M  ZZM   1 37
M  ZZI   1 125
M  ZZM   2 37
M  ZZI   2 124
M  ZZM   3 37
M  ZZI   3 124
M  ZZM   4 3
M  ZZI   4 121
M  ZZM   5 7
M  ZZI   5 81
M  ZZM   6 10
M  ZZI   6 192
M  ZZM   7 1
M  ZZI   7 113
M  ZZM   8 3
M  ZZI   8 121
M  ZZM   9 7
M  ZZI   9 81
M  ZZM  10 10
M  ZZI  10 191
M  ZZM  11 3
M  ZZI  11 121
M  ZZM  12 7
M  ZZI  12 81
M  ZZM  13 1
M  ZZI  13 112
M  ZZM  14 1
M  ZZI  14 112
M  ZZM  15 1
M  ZZI  15 112
M  ZZM  16 37
M  ZZI  16 125
M  ZZM  17 37
M  ZZI  17 125
M  ZZM  18 37
M  ZZI  18 125
M  ZZM  19 5
M  ZZI  19 1
M  ZZM  20 5
M  ZZI  20 1
M  ZZM  21 28
M  ZZI  21 11
M  ZZM  22 5
M  ZZI  22 1
M  ZZM  23 5
M  ZZI  23 1
M  ZZM  24 5
M  ZZI  24 1
M  ZZM  25 5
M  ZZI  25 1
M  ZZM  26 5
M  ZZI  26 1
M  ZZM  27 5
M  ZZI  27 1
M  ZZM  28 5
M  ZZI  28 1
M  ZZM  29 5
M  ZZI  29 1
M  ZZM  30 5
M  ZZI  30 1
M  END
> <IX>
1

> <NAME>
Cereblon_1FKH_7.pdb

> <Score>
-19.774076

> <Natom>
30

> <Nflex>
1

> <Hbond>
-4.427689

> <Hphob>
-3.575001

> <VwInt>
-21.502119

> <Dsolv>
13.264502

> <SolEl>
5.682424

> <Eintl>
1.71095

> <RecConf>
ND

> <projPath>
Cereblon_maps/

> <NAME_>
Cereblon_1FKH_7.pdb

$$$$
