Cereblon_4QNQ_32.pdb
  MOLSOFT 04032206233D

 31 33  0  0  1  0  0  0  0  0999 V2000
   78.0615   40.6336   42.6398 N   0  0  0  0  0  0  0  0  0  0  0  0
   78.1150   41.7214   41.7531 C   0  0  0  0  0  0  0  0  0  0  0  0
   77.2878   41.8140   40.6426 C   0  0  0  0  0  0  0  0  0  0  0  0
   76.2200   40.9239   40.1930 C   0  0  0  0  0  0  0  0  0  0  0  0
   75.9714   39.8378   40.6972 O   0  0  0  0  0  0  0  0  0  0  0  0
   75.5974   41.5535   39.1310 N   0  0  0  0  0  0  0  0  0  0  0  0
   76.3232   42.6630   38.7471 C   0  0  0  0  0  0  0  0  0  0  0  0
   76.2183   43.3629   37.7512 O   0  0  0  0  0  0  0  0  0  0  0  0
   77.3614   42.8484   39.7607 C   0  0  0  0  0  0  0  0  0  0  0  0
   78.3019   43.8538   39.8875 C   0  0  0  0  0  0  0  0  0  0  0  0
   79.1704   43.7705   40.9682 C   0  0  0  0  0  0  0  0  0  0  0  0
   79.0744   42.7232   41.8862 C   0  0  0  0  0  0  0  0  0  0  0  0
   74.3468   41.0411   38.5418 C   0  0  1  0  0  0  0  0  0  0  0  0
   73.2151   41.3212   39.5219 C   0  0  0  0  0  0  0  0  0  0  0  0
   73.3998   41.6116   40.6913 O   0  0  0  0  0  0  0  0  0  0  0  0
   71.9419   41.1730   39.0328 N   0  0  0  0  0  0  0  0  0  0  0  0
   71.5557   40.9286   37.7406 C   0  0  0  0  0  0  0  0  0  0  0  0
   70.3915   40.6831   37.4641 O   0  0  0  0  0  0  0  0  0  0  0  0
   72.6653   40.9252   36.7093 C   0  0  0  0  0  0  0  0  0  0  0  0
   73.9084   41.6506   37.2098 C   0  0  0  0  0  0  0  0  0  0  0  0
   78.6421   40.6215   43.4771 H   0  0  0  0  0  0  0  0  0  0  0  0
   77.2665   39.9951   42.5830 H   0  0  0  0  0  0  0  0  0  0  0  0
   78.3581   44.6713   39.1773 H   0  0  0  0  0  0  0  0  0  0  0  0
   79.9275   44.5361   41.1069 H   0  0  0  0  0  0  0  0  0  0  0  0
   79.7646   42.6941   42.7234 H   0  0  0  0  0  0  0  0  0  0  0  0
   74.4430   39.9517   38.4640 H   0  0  0  0  0  0  0  0  0  0  0  0
   71.1955   41.2730   39.7083 H   0  0  0  0  0  0  0  0  0  0  0  0
   72.8990   39.8838   36.4641 H   0  0  0  0  0  0  0  0  0  0  0  0
   72.2966   41.4125   35.8008 H   0  0  0  0  0  0  0  0  0  0  0  0
   74.6974   41.5892   36.4590 H   0  0  0  0  0  0  0  0  0  0  0  0
   73.6802   42.7161   37.3318 H   0  0  0  0  0  0  0  0  0  0  0  0
  1  2  1  0  0  0  0
  1 21  1  0  0  0  0
  1 22  1  0  0  0  0
  2  3  1  0  0  0  0
  2 12  2  0  0  0  0
  3  9  2  0  0  0  0
  3  4  1  0  0  0  0
  4  5  2  0  0  0  0
  4  6  1  0  0  0  0
  6  7  1  0  0  0  0
 13  6  1  0  0  0  0
  7  8  2  0  0  0  0
  7  9  1  0  0  0  0
  9 10  1  0  0  0  0
 10 23  1  0  0  0  0
 10 11  2  0  0  0  0
 11 12  1  0  0  0  0
 11 24  1  0  0  0  0
 12 25  1  0  0  0  0
 13 26  1  0  0  0  0
 13 14  1  0  0  0  0
 13 20  1  0  0  0  0
 14 15  2  0  0  0  0
 14 16  1  0  0  0  0
 16 27  1  0  0  0  0
 16 17  1  0  0  0  0
 17 18  2  0  0  0  0
 17 19  1  0  0  0  0
 19 28  1  0  0  0  0
 19 29  1  0  0  0  0
 19 20  1  0  0  0  0
 20 30  1  0  0  0  0
 20 31  1  0  0  0  0
M  ZZC   1 n1
M  ZZC   2 c1
M  ZZC   3 c2
M  ZZC   4 c3
M  ZZC   5 o1
M  ZZC   6 n2
M  ZZC   7 c4
M  ZZC   8 o2
M  ZZC   9 c5
M  ZZC  10 c6
M  ZZC  11 c7
M  ZZC  12 c8
M  ZZC  13 c9
M  ZZC  14 c10
M  ZZC  15 o3
M  ZZC  16 n3
M  ZZC  17 c11
M  ZZC  18 o4
M  ZZC  19 c12
M  ZZC  20 c13
M  ZZC  21 h11
M  ZZC  22 h12
M  ZZC  23 h61
M  ZZC  24 h71
M  ZZC  25 h81
M  ZZC  26 h91
M  ZZC  27 h31
M  ZZC  28 h121
M  ZZC  29 h122
M  ZZC  30 h131
M  ZZC  31 h132
M  ZZM   1 40
M  ZZI   1 224
M  ZZM   2 37
M  ZZI   2 124
M  ZZM   3 37
M  ZZI   3 124
M  ZZM   4 3
M  ZZI   4 121
M  ZZM   5 7
M  ZZI   5 81
M  ZZM   6 10
M  ZZI   6 192
M  ZZM   7 3
M  ZZI   7 121
M  ZZM   8 7
M  ZZI   8 81
M  ZZM   9 37
M  ZZI   9 124
M  ZZM  10 37
M  ZZI  10 125
M  ZZM  11 37
M  ZZI  11 125
M  ZZM  12 37
M  ZZI  12 125
M  ZZM  13 1
M  ZZI  13 113
M  ZZM  14 3
M  ZZI  14 121
M  ZZM  15 7
M  ZZI  15 81
M  ZZM  16 10
M  ZZI  16 191
M  ZZM  17 3
M  ZZI  17 121
M  ZZM  18 7
M  ZZI  18 81
M  ZZM  19 1
M  ZZI  19 112
M  ZZM  20 1
M  ZZI  20 112
M  ZZM  21 28
M  ZZI  21 11
M  ZZM  22 28
M  ZZI  22 11
M  ZZM  23 5
M  ZZI  23 1
M  ZZM  24 5
M  ZZI  24 1
M  ZZM  25 5
M  ZZI  25 1
M  ZZM  26 5
M  ZZI  26 1
M  ZZM  27 28
M  ZZI  27 11
M  ZZM  28 5
M  ZZI  28 1
M  ZZM  29 5
M  ZZI  29 1
M  ZZM  30 5
M  ZZI  30 1
M  ZZM  31 5
M  ZZI  31 1
M  END
> <IX>
1

> <NAME>
Cereblon_4QNQ_32.pdb

> <Score>
-14.051257

> <Natom>
31

> <Nflex>
1

> <Hbond>
-2.714315

> <Hphob>
-3.755978

> <VwInt>
-26.913719

> <Dsolv>
17.341269

> <SolEl>
7.709816

> <Eintl>
5.919588

> <RecConf>
ND

> <projPath>
Cereblon_maps/

> <NAME_>
Cereblon_4QNQ_32.pdb

$$$$
