Cereblon_6XJK_12.pdb
  MOLSOFT 04032206293D

 30 32  0  0  1  0  0  0  0  0999 V2000
   78.9586   42.3484   42.8087 C   0  0  0  0  0  0  0  0  0  0  0  0
   78.1528   42.0556   41.7211 C   0  0  0  0  0  0  0  0  0  0  0  0
   78.1605   42.8624   40.6139 C   0  0  0  0  0  0  0  0  0  0  0  0
   77.2314   42.3018   39.6253 C   0  0  0  0  0  0  0  0  0  0  0  0
   77.0133   42.7690   38.5149 O   0  0  0  0  0  0  0  0  0  0  0  0
   76.7065   41.1568   40.1926 N   0  0  0  0  0  0  0  0  0  0  0  0
   75.6915   40.3306   39.5340 C   0  0  2  0  0  0  0  0  0  0  0  0
   74.3089   40.9158   39.7936 C   0  0  0  0  0  0  0  0  0  0  0  0
   74.1220   42.1035   40.0015 O   0  0  0  0  0  0  0  0  0  0  0  0
   73.2532   40.0416   39.7077 N   0  0  0  0  0  0  0  0  0  0  0  0
   73.2837   38.6927   39.4540 C   0  0  0  0  0  0  0  0  0  0  0  0
   72.2631   38.0270   39.3915 O   0  0  0  0  0  0  0  0  0  0  0  0
   74.6465   38.0955   39.2047 C   0  0  0  0  0  0  0  0  0  0  0  0
   75.7289   38.8629   39.9427 C   0  0  0  0  0  0  0  0  0  0  0  0
   77.2291   40.9101   41.5267 C   0  0  0  0  0  0  0  0  0  0  0  0
   78.9660   43.9793   40.5069 C   0  0  0  0  0  0  0  0  0  0  0  0
   79.7866   44.2702   41.5880 C   0  0  0  0  0  0  0  0  0  0  0  0
   79.7813   43.4654   42.7253 C   0  0  0  0  0  0  0  0  0  0  0  0
   78.9584   41.7223   43.6963 H   0  0  0  0  0  0  0  0  0  0  0  0
   75.8554   40.4214   38.4581 H   0  0  0  0  0  0  0  0  0  0  0  0
   72.3361   40.4460   39.8508 H   0  0  0  0  0  0  0  0  0  0  0  0
   74.6390   37.0537   39.5404 H   0  0  0  0  0  0  0  0  0  0  0  0
   74.8241   38.1027   38.1247 H   0  0  0  0  0  0  0  0  0  0  0  0
   75.5725   38.7583   41.0211 H   0  0  0  0  0  0  0  0  0  0  0  0
   76.7105   38.4305   39.7223 H   0  0  0  0  0  0  0  0  0  0  0  0
   77.7714   39.9587   41.5391 H   0  0  0  0  0  0  0  0  0  0  0  0
   76.4193   40.9100   42.2592 H   0  0  0  0  0  0  0  0  0  0  0  0
   78.9542   44.5988   39.6175 H   0  0  0  0  0  0  0  0  0  0  0  0
   80.4339   45.1390   41.5504 H   0  0  0  0  0  0  0  0  0  0  0  0
   80.4308   43.7140   43.5595 H   0  0  0  0  0  0  0  0  0  0  0  0
  1 19  1  0  0  0  0
  1 18  2  0  0  0  0
  1  2  1  0  0  0  0
  2  3  2  0  0  0  0
  2 15  1  0  0  0  0
  3 16  1  0  0  0  0
  3  4  1  0  0  0  0
  4  6  1  0  0  0  0
  4  5  2  0  0  0  0
  6 15  1  0  0  0  0
  7  6  1  0  0  0  0
  7 20  1  0  0  0  0
  7  8  1  0  0  0  0
  7 14  1  0  0  0  0
  8  9  2  0  0  0  0
  8 10  1  0  0  0  0
 10 21  1  0  0  0  0
 10 11  1  0  0  0  0
 11 12  2  0  0  0  0
 11 13  1  0  0  0  0
 13 22  1  0  0  0  0
 13 23  1  0  0  0  0
 13 14  1  0  0  0  0
 14 24  1  0  0  0  0
 14 25  1  0  0  0  0
 15 26  1  0  0  0  0
 15 27  1  0  0  0  0
 16 17  2  0  0  0  0
 16 28  1  0  0  0  0
 17 18  1  0  0  0  0
 17 29  1  0  0  0  0
 18 30  1  0  0  0  0
M  ZZC   1 c1
M  ZZC   2 c2
M  ZZC   3 c3
M  ZZC   4 c4
M  ZZC   5 o1
M  ZZC   6 n1
M  ZZC   7 c5
M  ZZC   8 c6
M  ZZC   9 o2
M  ZZC  10 n2
M  ZZC  11 c7
M  ZZC  12 o3
M  ZZC  13 c8
M  ZZC  14 c9
M  ZZC  15 c10
M  ZZC  16 c11
M  ZZC  17 c12
M  ZZC  18 c13
M  ZZC  19 h11
M  ZZC  20 h51
M  ZZC  21 h21
M  ZZC  22 h81
M  ZZC  23 h82
M  ZZC  24 h91
M  ZZC  25 h92
M  ZZC  26 h101
M  ZZC  27 h102
M  ZZC  28 h111
M  ZZC  29 h121
M  ZZC  30 h131
M  ZZM   1 37
M  ZZI   1 125
M  ZZM   2 37
M  ZZI   2 124
M  ZZM   3 37
M  ZZI   3 124
M  ZZM   4 3
M  ZZI   4 121
M  ZZM   5 7
M  ZZI   5 81
M  ZZM   6 10
M  ZZI   6 192
M  ZZM   7 1
M  ZZI   7 113
M  ZZM   8 3
M  ZZI   8 121
M  ZZM   9 7
M  ZZI   9 81
M  ZZM  10 10
M  ZZI  10 191
M  ZZM  11 3
M  ZZI  11 121
M  ZZM  12 7
M  ZZI  12 81
M  ZZM  13 1
M  ZZI  13 112
M  ZZM  14 1
M  ZZI  14 112
M  ZZM  15 1
M  ZZI  15 112
M  ZZM  16 37
M  ZZI  16 125
M  ZZM  17 37
M  ZZI  17 125
M  ZZM  18 37
M  ZZI  18 125
M  ZZM  19 5
M  ZZI  19 1
M  ZZM  20 5
M  ZZI  20 1
M  ZZM  21 28
M  ZZI  21 11
M  ZZM  22 5
M  ZZI  22 1
M  ZZM  23 5
M  ZZI  23 1
M  ZZM  24 5
M  ZZI  24 1
M  ZZM  25 5
M  ZZI  25 1
M  ZZM  26 5
M  ZZI  26 1
M  ZZM  27 5
M  ZZI  27 1
M  ZZM  28 5
M  ZZI  28 1
M  ZZM  29 5
M  ZZI  29 1
M  ZZM  30 5
M  ZZI  30 1
M  END
> <IX>
1

> <NAME>
Cereblon_6XJK_12.pdb

> <Score>
-18.711284

> <Natom>
30

> <Nflex>
1

> <Hbond>
-3.266289

> <Hphob>
-3.919661

> <VwInt>
-21.08123

> <Dsolv>
11.039581

> <SolEl>
5.688724

> <Eintl>
1.042643

> <RecConf>
ND

> <projPath>
Cereblon_maps/

> <NAME_>
Cereblon_6XJK_12.pdb

$$$$
