Cereblon_4MXO_6.pdb
  MOLSOFT 04032206233D

 31 33  0  0  1  0  0  0  0  0999 V2000
   78.8139   41.6819   43.8085 N   0  0  0  0  0  0  0  0  0  0  0  0
   78.8966   42.4332   42.6261 C   0  0  0  0  0  0  0  0  0  0  0  0
   78.0939   42.1625   41.5309 C   0  0  0  0  0  0  0  0  0  0  0  0
   77.1745   41.0503   41.3250 C   0  0  0  0  0  0  0  0  0  0  0  0
   76.9919   40.1701   42.1531 O   0  0  0  0  0  0  0  0  0  0  0  0
   76.6408   41.2122   40.0619 N   0  0  0  0  0  0  0  0  0  0  0  0
   77.1619   42.3316   39.4458 C   0  0  0  0  0  0  0  0  0  0  0  0
   76.9518   42.7506   38.3149 O   0  0  0  0  0  0  0  0  0  0  0  0
   78.0917   42.9298   40.4054 C   0  0  0  0  0  0  0  0  0  0  0  0
   78.9051   44.0375   40.2821 C   0  0  0  0  0  0  0  0  0  0  0  0
   79.7250   44.3366   41.3643 C   0  0  0  0  0  0  0  0  0  0  0  0
   79.7118   43.5562   42.5221 C   0  0  0  0  0  0  0  0  0  0  0  0
   75.6197   40.3757   39.4276 C   0  0  2  0  0  0  0  0  0  0  0  0
   74.2493   40.9560   39.7321 C   0  0  0  0  0  0  0  0  0  0  0  0
   74.0807   42.1361   39.9908 O   0  0  0  0  0  0  0  0  0  0  0  0
   73.1876   40.0927   39.6147 N   0  0  0  0  0  0  0  0  0  0  0  0
   73.2111   38.7551   39.3016 C   0  0  0  0  0  0  0  0  0  0  0  0
   72.1853   38.1045   39.1870 O   0  0  0  0  0  0  0  0  0  0  0  0
   74.5743   38.1525   39.0568 C   0  0  0  0  0  0  0  0  0  0  0  0
   75.6518   38.9023   39.8204 C   0  0  0  0  0  0  0  0  0  0  0  0
   79.5215   41.7934   44.5317 H   0  0  0  0  0  0  0  0  0  0  0  0
   78.2858   40.8077   43.7907 H   0  0  0  0  0  0  0  0  0  0  0  0
   78.8993   44.6426   39.3832 H   0  0  0  0  0  0  0  0  0  0  0  0
   80.3773   45.2015   41.3162 H   0  0  0  0  0  0  0  0  0  0  0  0
   80.3480   43.8359   43.3563 H   0  0  0  0  0  0  0  0  0  0  0  0
   75.7534   40.4731   38.3490 H   0  0  0  0  0  0  0  0  0  0  0  0
   72.2723   40.4960   39.7725 H   0  0  0  0  0  0  0  0  0  0  0  0
   74.5560   37.1060   39.3774 H   0  0  0  0  0  0  0  0  0  0  0  0
   74.7663   38.1733   37.9796 H   0  0  0  0  0  0  0  0  0  0  0  0
   75.4656   38.7770   40.8910 H   0  0  0  0  0  0  0  0  0  0  0  0
   76.6364   38.4703   39.6147 H   0  0  0  0  0  0  0  0  0  0  0  0
  1  2  1  0  0  0  0
  1 21  1  0  0  0  0
  1 22  1  0  0  0  0
  2  3  1  0  0  0  0
  2 12  2  0  0  0  0
  3  9  2  0  0  0  0
  3  4  1  0  0  0  0
  4  5  2  0  0  0  0
  4  6  1  0  0  0  0
  6  7  1  0  0  0  0
 13  6  1  0  0  0  0
  7  8  2  0  0  0  0
  7  9  1  0  0  0  0
  9 10  1  0  0  0  0
 10 23  1  0  0  0  0
 10 11  2  0  0  0  0
 11 12  1  0  0  0  0
 11 24  1  0  0  0  0
 12 25  1  0  0  0  0
 13 26  1  0  0  0  0
 13 14  1  0  0  0  0
 13 20  1  0  0  0  0
 14 15  2  0  0  0  0
 14 16  1  0  0  0  0
 16 27  1  0  0  0  0
 16 17  1  0  0  0  0
 17 18  2  0  0  0  0
 17 19  1  0  0  0  0
 19 28  1  0  0  0  0
 19 29  1  0  0  0  0
 19 20  1  0  0  0  0
 20 30  1  0  0  0  0
 20 31  1  0  0  0  0
M  ZZC   1 n1
M  ZZC   2 c1
M  ZZC   3 c2
M  ZZC   4 c3
M  ZZC   5 o1
M  ZZC   6 n2
M  ZZC   7 c4
M  ZZC   8 o2
M  ZZC   9 c5
M  ZZC  10 c6
M  ZZC  11 c7
M  ZZC  12 c8
M  ZZC  13 c9
M  ZZC  14 c10
M  ZZC  15 o3
M  ZZC  16 n3
M  ZZC  17 c11
M  ZZC  18 o4
M  ZZC  19 c12
M  ZZC  20 c13
M  ZZC  21 h11
M  ZZC  22 h12
M  ZZC  23 h61
M  ZZC  24 h71
M  ZZC  25 h81
M  ZZC  26 h91
M  ZZC  27 h31
M  ZZC  28 h121
M  ZZC  29 h122
M  ZZC  30 h131
M  ZZC  31 h132
M  ZZM   1 40
M  ZZI   1 224
M  ZZM   2 37
M  ZZI   2 124
M  ZZM   3 37
M  ZZI   3 124
M  ZZM   4 3
M  ZZI   4 121
M  ZZM   5 7
M  ZZI   5 81
M  ZZM   6 10
M  ZZI   6 192
M  ZZM   7 3
M  ZZI   7 121
M  ZZM   8 7
M  ZZI   8 81
M  ZZM   9 37
M  ZZI   9 124
M  ZZM  10 37
M  ZZI  10 125
M  ZZM  11 37
M  ZZI  11 125
M  ZZM  12 37
M  ZZI  12 125
M  ZZM  13 1
M  ZZI  13 113
M  ZZM  14 3
M  ZZI  14 121
M  ZZM  15 7
M  ZZI  15 81
M  ZZM  16 10
M  ZZI  16 191
M  ZZM  17 3
M  ZZI  17 121
M  ZZM  18 7
M  ZZI  18 81
M  ZZM  19 1
M  ZZI  19 112
M  ZZM  20 1
M  ZZI  20 112
M  ZZM  21 28
M  ZZI  21 11
M  ZZM  22 28
M  ZZI  22 11
M  ZZM  23 5
M  ZZI  23 1
M  ZZM  24 5
M  ZZI  24 1
M  ZZM  25 5
M  ZZI  25 1
M  ZZM  26 5
M  ZZI  26 1
M  ZZM  27 28
M  ZZI  27 11
M  ZZM  28 5
M  ZZI  28 1
M  ZZM  29 5
M  ZZI  29 1
M  ZZM  30 5
M  ZZI  30 1
M  ZZM  31 5
M  ZZI  31 1
M  END
> <IX>
1

> <NAME>
Cereblon_4MXO_6.pdb

> <Score>
-18.616189

> <Natom>
31

> <Nflex>
1

> <Hbond>
-3.688343

> <Hphob>
-3.589183

> <VwInt>
-24.266864

> <Dsolv>
15.233834

> <SolEl>
6.587948

> <Eintl>
1.689187

> <RecConf>
ND

> <projPath>
Cereblon_maps/

> <NAME_>
Cereblon_4MXO_6.pdb

$$$$
