Cereblon_5TOB_15.pdb
  MOLSOFT 04032206263D

 29 31  0  0  1  0  0  0  0  0999 V2000
   77.0265   40.7698   41.5160 C   0  0  0  0  0  0  0  0  0  0  0  0
   76.1564   40.4145   40.5008 C   0  0  0  0  0  0  0  0  0  0  0  0
   75.2220   41.2350   39.7339 C   0  0  0  0  0  0  0  0  0  0  0  0
   75.0227   42.4182   39.9514 O   0  0  0  0  0  0  0  0  0  0  0  0
   74.6375   40.4093   38.8020 N   0  0  0  0  0  0  0  0  0  0  0  0
   75.0298   39.1035   38.9988 C   0  0  0  0  0  0  0  0  0  0  0  0
   74.6291   38.0829   38.4586 O   0  0  0  0  0  0  0  0  0  0  0  0
   76.0370   39.1315   40.0607 C   0  0  0  0  0  0  0  0  0  0  0  0
   76.7782   38.0995   40.6065 C   0  0  0  0  0  0  0  0  0  0  0  0
   77.6546   38.4314   41.6342 C   0  0  0  0  0  0  0  0  0  0  0  0
   77.7734   39.7463   42.0846 C   0  0  0  0  0  0  0  0  0  0  0  0
   73.5969   40.8241   37.8571 C   0  0  2  0  0  0  0  0  0  0  0  0
   74.0281   42.0700   37.0826 C   0  0  0  0  0  0  0  0  0  0  0  0
   75.1967   42.3405   36.8435 O   0  0  0  0  0  0  0  0  0  0  0  0
   73.0081   42.8616   36.6062 N   0  0  0  0  0  0  0  0  0  0  0  0
   71.6517   42.7014   36.7605 C   0  0  0  0  0  0  0  0  0  0  0  0
   70.8491   43.4910   36.2862 O   0  0  0  0  0  0  0  0  0  0  0  0
   71.2177   41.4662   37.5109 C   0  0  0  0  0  0  0  0  0  0  0  0
   72.2534   41.0440   38.5410 C   0  0  0  0  0  0  0  0  0  0  0  0
   77.1294   41.7959   41.8554 H   0  0  0  0  0  0  0  0  0  0  0  0
   76.6785   37.0775   40.2533 H   0  0  0  0  0  0  0  0  0  0  0  0
   78.2554   37.6547   42.0974 H   0  0  0  0  0  0  0  0  0  0  0  0
   78.4602   39.9752   42.8941 H   0  0  0  0  0  0  0  0  0  0  0  0
   73.4847   40.0219   37.1186 H   0  0  0  0  0  0  0  0  0  0  0  0
   73.2914   43.6840   36.0912 H   0  0  0  0  0  0  0  0  0  0  0  0
   70.2675   41.6797   38.0088 H   0  0  0  0  0  0  0  0  0  0  0  0
   71.0453   40.6675   36.7820 H   0  0  0  0  0  0  0  0  0  0  0  0
   71.9245   40.1268   39.0403 H   0  0  0  0  0  0  0  0  0  0  0  0
   72.3405   41.8046   39.3240 H   0  0  0  0  0  0  0  0  0  0  0  0
  1 20  1  0  0  0  0
  1  2  1  0  0  0  0
  1 11  2  0  0  0  0
  2  3  1  0  0  0  0
  2  8  2  0  0  0  0
  3  4  2  0  0  0  0
  3  5  1  0  0  0  0
  5  6  1  0  0  0  0
 12  5  1  0  0  0  0
  6  7  2  0  0  0  0
  6  8  1  0  0  0  0
  8  9  1  0  0  0  0
  9 21  1  0  0  0  0
  9 10  2  0  0  0  0
 10 22  1  0  0  0  0
 10 11  1  0  0  0  0
 11 23  1  0  0  0  0
 12 24  1  0  0  0  0
 12 13  1  0  0  0  0
 12 19  1  0  0  0  0
 13 14  2  0  0  0  0
 13 15  1  0  0  0  0
 15 25  1  0  0  0  0
 15 16  1  0  0  0  0
 16 17  2  0  0  0  0
 16 18  1  0  0  0  0
 18 26  1  0  0  0  0
 18 27  1  0  0  0  0
 18 19  1  0  0  0  0
 19 28  1  0  0  0  0
 19 29  1  0  0  0  0
M  ZZC   1 c1
M  ZZC   2 c2
M  ZZC   3 c3
M  ZZC   4 o1
M  ZZC   5 n1
M  ZZC   6 c4
M  ZZC   7 o2
M  ZZC   8 c5
M  ZZC   9 c6
M  ZZC  10 c7
M  ZZC  11 c8
M  ZZC  12 c9
M  ZZC  13 c10
M  ZZC  14 o3
M  ZZC  15 n2
M  ZZC  16 c11
M  ZZC  17 o4
M  ZZC  18 c12
M  ZZC  19 c13
M  ZZC  20 h11
M  ZZC  21 h61
M  ZZC  22 h71
M  ZZC  23 h81
M  ZZC  24 h91
M  ZZC  25 h21
M  ZZC  26 h121
M  ZZC  27 h122
M  ZZC  28 h131
M  ZZC  29 h132
M  ZZM   1 37
M  ZZI   1 125
M  ZZM   2 37
M  ZZI   2 124
M  ZZM   3 3
M  ZZI   3 121
M  ZZM   4 7
M  ZZI   4 81
M  ZZM   5 10
M  ZZI   5 192
M  ZZM   6 3
M  ZZI   6 121
M  ZZM   7 7
M  ZZI   7 81
M  ZZM   8 37
M  ZZI   8 124
M  ZZM   9 37
M  ZZI   9 125
M  ZZM  10 37
M  ZZI  10 125
M  ZZM  11 37
M  ZZI  11 125
M  ZZM  12 1
M  ZZI  12 113
M  ZZM  13 3
M  ZZI  13 121
M  ZZM  14 7
M  ZZI  14 81
M  ZZM  15 10
M  ZZI  15 191
M  ZZM  16 3
M  ZZI  16 121
M  ZZM  17 7
M  ZZI  17 81
M  ZZM  18 1
M  ZZI  18 112
M  ZZM  19 1
M  ZZI  19 112
M  ZZM  20 5
M  ZZI  20 1
M  ZZM  21 5
M  ZZI  21 1
M  ZZM  22 5
M  ZZI  22 1
M  ZZM  23 5
M  ZZI  23 1
M  ZZM  24 5
M  ZZI  24 1
M  ZZM  25 28
M  ZZI  25 11
M  ZZM  26 5
M  ZZI  26 1
M  ZZM  27 5
M  ZZI  27 1
M  ZZM  28 5
M  ZZI  28 1
M  ZZM  29 5
M  ZZI  29 1
M  END
> <IX>
1

> <NAME>
Cereblon_5TOB_15.pdb

> <Score>
-17.543669

> <Natom>
29

> <Nflex>
1

> <Hbond>
-4.544029

> <Hphob>
-3.509836

> <VwInt>
-21.603193

> <Dsolv>
14.585354

> <SolEl>
7.571653

> <Eintl>
2.285335

> <RecConf>
ND

> <projPath>
Cereblon_maps/

> <NAME_>
Cereblon_5TOB_15.pdb

$$$$
