Cereblon_4QNQ_53.pdb
  MOLSOFT 04032206243D

 31 33  0  0  1  0  0  0  0  0999 V2000
   77.9932   40.6347   42.7176 N   0  0  0  0  0  0  0  0  0  0  0  0
   78.1426   41.6618   41.7702 C   0  0  0  0  0  0  0  0  0  0  0  0
   77.3011   41.7873   40.6739 C   0  0  0  0  0  0  0  0  0  0  0  0
   76.2285   40.9088   40.2138 C   0  0  0  0  0  0  0  0  0  0  0  0
   75.9828   39.8137   40.6999 O   0  0  0  0  0  0  0  0  0  0  0  0
   75.6115   41.5523   39.1570 N   0  0  0  0  0  0  0  0  0  0  0  0
   76.3439   42.6621   38.7865 C   0  0  0  0  0  0  0  0  0  0  0  0
   76.2450   43.3726   37.7976 O   0  0  0  0  0  0  0  0  0  0  0  0
   77.3816   42.8312   39.8036 C   0  0  0  0  0  0  0  0  0  0  0  0
   78.3239   43.8330   39.9468 C   0  0  0  0  0  0  0  0  0  0  0  0
   79.1735   43.7448   41.0422 C   0  0  0  0  0  0  0  0  0  0  0  0
   79.0660   42.6899   41.9507 C   0  0  0  0  0  0  0  0  0  0  0  0
   74.3645   41.0483   38.5536 C   0  0  1  0  0  0  0  0  0  0  0  0
   73.2247   41.3225   39.5253 C   0  0  0  0  0  0  0  0  0  0  0  0
   73.3992   41.6056   40.6981 O   0  0  0  0  0  0  0  0  0  0  0  0
   71.9562   41.1784   39.0233 N   0  0  0  0  0  0  0  0  0  0  0  0
   71.5821   40.9434   37.7257 C   0  0  0  0  0  0  0  0  0  0  0  0
   70.4209   40.6988   37.4363 O   0  0  0  0  0  0  0  0  0  0  0  0
   72.7008   40.9491   36.7044 C   0  0  0  0  0  0  0  0  0  0  0  0
   73.9392   41.6695   37.2229 C   0  0  0  0  0  0  0  0  0  0  0  0
   78.7737   40.4221   43.3376 H   0  0  0  0  0  0  0  0  0  0  0  0
   77.3611   39.8684   42.4827 H   0  0  0  0  0  0  0  0  0  0  0  0
   78.3861   44.6590   39.2467 H   0  0  0  0  0  0  0  0  0  0  0  0
   79.9155   44.5198   41.2078 H   0  0  0  0  0  0  0  0  0  0  0  0
   79.7212   42.6728   42.8160 H   0  0  0  0  0  0  0  0  0  0  0  0
   74.4588   39.9592   38.4679 H   0  0  0  0  0  0  0  0  0  0  0  0
   71.2035   41.2738   39.6924 H   0  0  0  0  0  0  0  0  0  0  0  0
   72.9363   39.9098   36.4518 H   0  0  0  0  0  0  0  0  0  0  0  0
   72.3404   41.4447   35.7972 H   0  0  0  0  0  0  0  0  0  0  0  0
   74.7356   41.6139   36.4796 H   0  0  0  0  0  0  0  0  0  0  0  0
   73.7102   42.7340   37.3516 H   0  0  0  0  0  0  0  0  0  0  0  0
  1  2  1  0  0  0  0
  1 21  1  0  0  0  0
  1 22  1  0  0  0  0
  2  3  1  0  0  0  0
  2 12  2  0  0  0  0
  3  9  2  0  0  0  0
  3  4  1  0  0  0  0
  4  5  2  0  0  0  0
  4  6  1  0  0  0  0
  6  7  1  0  0  0  0
 13  6  1  0  0  0  0
  7  8  2  0  0  0  0
  7  9  1  0  0  0  0
  9 10  1  0  0  0  0
 10 23  1  0  0  0  0
 10 11  2  0  0  0  0
 11 12  1  0  0  0  0
 11 24  1  0  0  0  0
 12 25  1  0  0  0  0
 13 26  1  0  0  0  0
 13 14  1  0  0  0  0
 13 20  1  0  0  0  0
 14 15  2  0  0  0  0
 14 16  1  0  0  0  0
 16 27  1  0  0  0  0
 16 17  1  0  0  0  0
 17 18  2  0  0  0  0
 17 19  1  0  0  0  0
 19 28  1  0  0  0  0
 19 29  1  0  0  0  0
 19 20  1  0  0  0  0
 20 30  1  0  0  0  0
 20 31  1  0  0  0  0
M  ZZC   1 n1
M  ZZC   2 c1
M  ZZC   3 c2
M  ZZC   4 c3
M  ZZC   5 o1
M  ZZC   6 n2
M  ZZC   7 c4
M  ZZC   8 o2
M  ZZC   9 c5
M  ZZC  10 c6
M  ZZC  11 c7
M  ZZC  12 c8
M  ZZC  13 c9
M  ZZC  14 c10
M  ZZC  15 o3
M  ZZC  16 n3
M  ZZC  17 c11
M  ZZC  18 o4
M  ZZC  19 c12
M  ZZC  20 c13
M  ZZC  21 h11
M  ZZC  22 h12
M  ZZC  23 h61
M  ZZC  24 h71
M  ZZC  25 h81
M  ZZC  26 h91
M  ZZC  27 h31
M  ZZC  28 h121
M  ZZC  29 h122
M  ZZC  30 h131
M  ZZC  31 h132
M  ZZM   1 40
M  ZZI   1 224
M  ZZM   2 37
M  ZZI   2 124
M  ZZM   3 37
M  ZZI   3 124
M  ZZM   4 3
M  ZZI   4 121
M  ZZM   5 7
M  ZZI   5 81
M  ZZM   6 10
M  ZZI   6 192
M  ZZM   7 3
M  ZZI   7 121
M  ZZM   8 7
M  ZZI   8 81
M  ZZM   9 37
M  ZZI   9 124
M  ZZM  10 37
M  ZZI  10 125
M  ZZM  11 37
M  ZZI  11 125
M  ZZM  12 37
M  ZZI  12 125
M  ZZM  13 1
M  ZZI  13 113
M  ZZM  14 3
M  ZZI  14 121
M  ZZM  15 7
M  ZZI  15 81
M  ZZM  16 10
M  ZZI  16 191
M  ZZM  17 3
M  ZZI  17 121
M  ZZM  18 7
M  ZZI  18 81
M  ZZM  19 1
M  ZZI  19 112
M  ZZM  20 1
M  ZZI  20 112
M  ZZM  21 28
M  ZZI  21 11
M  ZZM  22 28
M  ZZI  22 11
M  ZZM  23 5
M  ZZI  23 1
M  ZZM  24 5
M  ZZI  24 1
M  ZZM  25 5
M  ZZI  25 1
M  ZZM  26 5
M  ZZI  26 1
M  ZZM  27 28
M  ZZI  27 11
M  ZZM  28 5
M  ZZI  28 1
M  ZZM  29 5
M  ZZI  29 1
M  ZZM  30 5
M  ZZI  30 1
M  ZZM  31 5
M  ZZI  31 1
M  END
> <IX>
1

> <NAME>
Cereblon_4QNQ_53.pdb

> <Score>
-15.206204

> <Natom>
31

> <Nflex>
1

> <Hbond>
-2.895017

> <Hphob>
-3.698701

> <VwInt>
-27.007241

> <Dsolv>
17.156137

> <SolEl>
7.075224

> <Eintl>
5.778015

> <RecConf>
ND

> <projPath>
Cereblon_maps/

> <NAME_>
Cereblon_4QNQ_53.pdb

$$$$
