Cereblon_5P9J_14.pdb
  MOLSOFT 04032206263D

 31 33  0  0  1  0  0  0  0  0999 V2000
   78.0644   40.6366   42.6428 N   0  0  0  0  0  0  0  0  0  0  0  0
   78.1176   41.7246   41.7563 C   0  0  0  0  0  0  0  0  0  0  0  0
   77.2901   41.8171   40.6460 C   0  0  0  0  0  0  0  0  0  0  0  0
   76.2211   40.9280   40.1975 C   0  0  0  0  0  0  0  0  0  0  0  0
   75.9727   39.8416   40.7013 O   0  0  0  0  0  0  0  0  0  0  0  0
   75.5988   41.5573   39.1352 N   0  0  0  0  0  0  0  0  0  0  0  0
   76.3268   42.6648   38.7493 C   0  0  0  0  0  0  0  0  0  0  0  0
   76.2253   43.3615   37.7508 O   0  0  0  0  0  0  0  0  0  0  0  0
   77.3643   42.8509   39.7633 C   0  0  0  0  0  0  0  0  0  0  0  0
   78.3055   43.8559   39.8895 C   0  0  0  0  0  0  0  0  0  0  0  0
   79.1740   43.7726   40.9702 C   0  0  0  0  0  0  0  0  0  0  0  0
   79.0776   42.7257   41.8886 C   0  0  0  0  0  0  0  0  0  0  0  0
   74.3498   41.0437   38.5440 C   0  0  1  0  0  0  0  0  0  0  0  0
   73.2162   41.3213   39.5226 C   0  0  0  0  0  0  0  0  0  0  0  0
   73.3984   41.6115   40.6926 O   0  0  0  0  0  0  0  0  0  0  0  0
   71.9440   41.1726   39.0312 N   0  0  0  0  0  0  0  0  0  0  0  0
   71.5600   40.9289   37.7383 C   0  0  0  0  0  0  0  0  0  0  0  0
   70.3962   40.6832   37.4599 O   0  0  0  0  0  0  0  0  0  0  0  0
   72.6711   40.9273   36.7088 C   0  0  0  0  0  0  0  0  0  0  0  0
   73.9126   41.6537   37.2117 C   0  0  0  0  0  0  0  0  0  0  0  0
   78.6404   40.6287   43.4834 H   0  0  0  0  0  0  0  0  0  0  0  0
   77.2681   39.9998   42.5871 H   0  0  0  0  0  0  0  0  0  0  0  0
   78.3627   44.6724   39.1782 H   0  0  0  0  0  0  0  0  0  0  0  0
   79.9318   44.5376   41.1082 H   0  0  0  0  0  0  0  0  0  0  0  0
   79.7681   42.6963   42.7256 H   0  0  0  0  0  0  0  0  0  0  0  0
   74.4474   39.9544   38.4658 H   0  0  0  0  0  0  0  0  0  0  0  0
   71.1963   41.2712   39.7055 H   0  0  0  0  0  0  0  0  0  0  0  0
   72.9063   39.8864   36.4632 H   0  0  0  0  0  0  0  0  0  0  0  0
   72.3034   41.4151   35.8002 H   0  0  0  0  0  0  0  0  0  0  0  0
   74.7028   41.5933   36.4620 H   0  0  0  0  0  0  0  0  0  0  0  0
   73.6832   42.7189   37.3342 H   0  0  0  0  0  0  0  0  0  0  0  0
  1  2  1  0  0  0  0
  1 21  1  0  0  0  0
  1 22  1  0  0  0  0
  2  3  1  0  0  0  0
  2 12  2  0  0  0  0
  3  9  2  0  0  0  0
  3  4  1  0  0  0  0
  4  5  2  0  0  0  0
  4  6  1  0  0  0  0
  6  7  1  0  0  0  0
 13  6  1  0  0  0  0
  7  8  2  0  0  0  0
  7  9  1  0  0  0  0
  9 10  1  0  0  0  0
 10 23  1  0  0  0  0
 10 11  2  0  0  0  0
 11 12  1  0  0  0  0
 11 24  1  0  0  0  0
 12 25  1  0  0  0  0
 13 26  1  0  0  0  0
 13 14  1  0  0  0  0
 13 20  1  0  0  0  0
 14 15  2  0  0  0  0
 14 16  1  0  0  0  0
 16 27  1  0  0  0  0
 16 17  1  0  0  0  0
 17 18  2  0  0  0  0
 17 19  1  0  0  0  0
 19 28  1  0  0  0  0
 19 29  1  0  0  0  0
 19 20  1  0  0  0  0
 20 30  1  0  0  0  0
 20 31  1  0  0  0  0
M  ZZC   1 n1
M  ZZC   2 c1
M  ZZC   3 c2
M  ZZC   4 c3
M  ZZC   5 o1
M  ZZC   6 n2
M  ZZC   7 c4
M  ZZC   8 o2
M  ZZC   9 c5
M  ZZC  10 c6
M  ZZC  11 c7
M  ZZC  12 c8
M  ZZC  13 c9
M  ZZC  14 c10
M  ZZC  15 o3
M  ZZC  16 n3
M  ZZC  17 c11
M  ZZC  18 o4
M  ZZC  19 c12
M  ZZC  20 c13
M  ZZC  21 h11
M  ZZC  22 h12
M  ZZC  23 h61
M  ZZC  24 h71
M  ZZC  25 h81
M  ZZC  26 h91
M  ZZC  27 h31
M  ZZC  28 h121
M  ZZC  29 h122
M  ZZC  30 h131
M  ZZC  31 h132
M  ZZM   1 40
M  ZZI   1 224
M  ZZM   2 37
M  ZZI   2 124
M  ZZM   3 37
M  ZZI   3 124
M  ZZM   4 3
M  ZZI   4 121
M  ZZM   5 7
M  ZZI   5 81
M  ZZM   6 10
M  ZZI   6 192
M  ZZM   7 3
M  ZZI   7 121
M  ZZM   8 7
M  ZZI   8 81
M  ZZM   9 37
M  ZZI   9 124
M  ZZM  10 37
M  ZZI  10 125
M  ZZM  11 37
M  ZZI  11 125
M  ZZM  12 37
M  ZZI  12 125
M  ZZM  13 1
M  ZZI  13 113
M  ZZM  14 3
M  ZZI  14 121
M  ZZM  15 7
M  ZZI  15 81
M  ZZM  16 10
M  ZZI  16 191
M  ZZM  17 3
M  ZZI  17 121
M  ZZM  18 7
M  ZZI  18 81
M  ZZM  19 1
M  ZZI  19 112
M  ZZM  20 1
M  ZZI  20 112
M  ZZM  21 28
M  ZZI  21 11
M  ZZM  22 28
M  ZZI  22 11
M  ZZM  23 5
M  ZZI  23 1
M  ZZM  24 5
M  ZZI  24 1
M  ZZM  25 5
M  ZZI  25 1
M  ZZM  26 5
M  ZZI  26 1
M  ZZM  27 28
M  ZZI  27 11
M  ZZM  28 5
M  ZZI  28 1
M  ZZM  29 5
M  ZZI  29 1
M  ZZM  30 5
M  ZZI  30 1
M  ZZM  31 5
M  ZZI  31 1
M  END
> <IX>
1

> <NAME>
Cereblon_5P9J_14.pdb

> <Score>
-14.723897

> <Natom>
31

> <Nflex>
1

> <Hbond>
-2.76864

> <Hphob>
-3.724151

> <VwInt>
-26.934486

> <Dsolv>
17.306253

> <SolEl>
6.92918

> <Eintl>
5.929135

> <RecConf>
ND

> <projPath>
Cereblon_maps/

> <NAME_>
Cereblon_5P9J_14.pdb

$$$$
