Cereblon_3LQ5_20.pdb
  MOLSOFT 04032206213D

 29 31  0  0  1  0  0  0  0  0999 V2000
   78.9977   42.4836   42.6747 C   0  0  0  0  0  0  0  0  0  0  0  0
   78.1812   42.1908   41.5971 C   0  0  0  0  0  0  0  0  0  0  0  0
   77.2643   41.0730   41.4092 C   0  0  0  0  0  0  0  0  0  0  0  0
   77.0846   40.2099   42.2549 O   0  0  0  0  0  0  0  0  0  0  0  0
   76.7232   41.2184   40.1451 N   0  0  0  0  0  0  0  0  0  0  0  0
   77.2213   42.3458   39.5233 C   0  0  0  0  0  0  0  0  0  0  0  0
   76.9874   42.7657   38.3976 O   0  0  0  0  0  0  0  0  0  0  0  0
   78.1554   42.9556   40.4699 C   0  0  0  0  0  0  0  0  0  0  0  0
   78.9546   44.0723   40.3310 C   0  0  0  0  0  0  0  0  0  0  0  0
   79.7953   44.3799   41.3950 C   0  0  0  0  0  0  0  0  0  0  0  0
   79.8176   43.5988   42.5512 C   0  0  0  0  0  0  0  0  0  0  0  0
   75.7149   40.3655   39.5104 C   0  0  2  0  0  0  0  0  0  0  0  0
   74.3350   40.9368   39.7957 C   0  0  0  0  0  0  0  0  0  0  0  0
   74.1497   42.1227   40.0131 O   0  0  0  0  0  0  0  0  0  0  0  0
   73.2826   40.0578   39.7138 N   0  0  0  0  0  0  0  0  0  0  0  0
   73.3190   38.7119   39.4429 C   0  0  0  0  0  0  0  0  0  0  0  0
   72.3024   38.0402   39.3821 O   0  0  0  0  0  0  0  0  0  0  0  0
   74.6835   38.1280   39.1716 C   0  0  0  0  0  0  0  0  0  0  0  0
   75.7658   38.8945   39.9114 C   0  0  0  0  0  0  0  0  0  0  0  0
   79.0046   41.8673   43.5696 H   0  0  0  0  0  0  0  0  0  0  0  0
   78.9253   44.6759   39.4317 H   0  0  0  0  0  0  0  0  0  0  0  0
   80.4447   45.2450   41.3276 H   0  0  0  0  0  0  0  0  0  0  0  0
   80.4844   43.8654   43.3664 H   0  0  0  0  0  0  0  0  0  0  0  0
   75.8563   40.4539   38.4313 H   0  0  0  0  0  0  0  0  0  0  0  0
   72.3644   40.4535   39.8730 H   0  0  0  0  0  0  0  0  0  0  0  0
   74.6846   37.0823   39.4952 H   0  0  0  0  0  0  0  0  0  0  0  0
   74.8477   38.1488   38.0898 H   0  0  0  0  0  0  0  0  0  0  0  0
   76.7508   38.4708   39.6903 H   0  0  0  0  0  0  0  0  0  0  0  0
   75.5992   38.7753   40.9856 H   0  0  0  0  0  0  0  0  0  0  0  0
  1 20  1  0  0  0  0
  1  2  1  0  0  0  0
  1 11  2  0  0  0  0
  2  3  1  0  0  0  0
  2  8  2  0  0  0  0
  3  4  2  0  0  0  0
  3  5  1  0  0  0  0
  5  6  1  0  0  0  0
 12  5  1  0  0  0  0
  6  7  2  0  0  0  0
  6  8  1  0  0  0  0
  8  9  1  0  0  0  0
  9 21  1  0  0  0  0
  9 10  2  0  0  0  0
 10 22  1  0  0  0  0
 10 11  1  0  0  0  0
 11 23  1  0  0  0  0
 12 24  1  0  0  0  0
 12 13  1  0  0  0  0
 12 19  1  0  0  0  0
 13 14  2  0  0  0  0
 13 15  1  0  0  0  0
 15 25  1  0  0  0  0
 15 16  1  0  0  0  0
 16 17  2  0  0  0  0
 16 18  1  0  0  0  0
 18 26  1  0  0  0  0
 18 27  1  0  0  0  0
 18 19  1  0  0  0  0
 19 28  1  0  0  0  0
 19 29  1  0  0  0  0
M  ZZC   1 c1
M  ZZC   2 c2
M  ZZC   3 c3
M  ZZC   4 o1
M  ZZC   5 n1
M  ZZC   6 c4
M  ZZC   7 o2
M  ZZC   8 c5
M  ZZC   9 c6
M  ZZC  10 c7
M  ZZC  11 c8
M  ZZC  12 c9
M  ZZC  13 c10
M  ZZC  14 o3
M  ZZC  15 n2
M  ZZC  16 c11
M  ZZC  17 o4
M  ZZC  18 c12
M  ZZC  19 c13
M  ZZC  20 h11
M  ZZC  21 h61
M  ZZC  22 h71
M  ZZC  23 h81
M  ZZC  24 h91
M  ZZC  25 h21
M  ZZC  26 h121
M  ZZC  27 h122
M  ZZC  28 h131
M  ZZC  29 h132
M  ZZM   1 37
M  ZZI   1 125
M  ZZM   2 37
M  ZZI   2 124
M  ZZM   3 3
M  ZZI   3 121
M  ZZM   4 7
M  ZZI   4 81
M  ZZM   5 10
M  ZZI   5 192
M  ZZM   6 3
M  ZZI   6 121
M  ZZM   7 7
M  ZZI   7 81
M  ZZM   8 37
M  ZZI   8 124
M  ZZM   9 37
M  ZZI   9 125
M  ZZM  10 37
M  ZZI  10 125
M  ZZM  11 37
M  ZZI  11 125
M  ZZM  12 1
M  ZZI  12 113
M  ZZM  13 3
M  ZZI  13 121
M  ZZM  14 7
M  ZZI  14 81
M  ZZM  15 10
M  ZZI  15 191
M  ZZM  16 3
M  ZZI  16 121
M  ZZM  17 7
M  ZZI  17 81
M  ZZM  18 1
M  ZZI  18 112
M  ZZM  19 1
M  ZZI  19 112
M  ZZM  20 5
M  ZZI  20 1
M  ZZM  21 5
M  ZZI  21 1
M  ZZM  22 5
M  ZZI  22 1
M  ZZM  23 5
M  ZZI  23 1
M  ZZM  24 5
M  ZZI  24 1
M  ZZM  25 28
M  ZZI  25 11
M  ZZM  26 5
M  ZZI  26 1
M  ZZM  27 5
M  ZZI  27 1
M  ZZM  28 5
M  ZZI  28 1
M  ZZM  29 5
M  ZZI  29 1
M  END
> <IX>
1

> <NAME>
Cereblon_3LQ5_20.pdb

> <Score>
-19.320401

> <Natom>
29

> <Nflex>
1

> <Hbond>
-3.364846

> <Hphob>
-3.521353

> <VwInt>
-22.727871

> <Dsolv>
12.085438

> <SolEl>
5.628242

> <Eintl>
1.501865

> <RecConf>
ND

> <projPath>
Cereblon_maps/

> <NAME_>
Cereblon_3LQ5_20.pdb

$$$$
