Cereblon_3MXF_40.pdb
  MOLSOFT 04032206223D

 29 31  0  0  1  0  0  0  0  0999 V2000
   75.9401   42.3460   39.0971 C   0  0  0  0  0  0  0  0  0  0  0  0
   74.8784   41.6377   38.5650 C   0  0  0  0  0  0  0  0  0  0  0  0
   73.9403   42.0187   37.5151 C   0  0  0  0  0  0  0  0  0  0  0  0
   74.0456   43.0666   36.9002 O   0  0  0  0  0  0  0  0  0  0  0  0
   73.0518   40.9698   37.3698 N   0  0  0  0  0  0  0  0  0  0  0  0
   73.4151   39.9250   38.2005 C   0  0  0  0  0  0  0  0  0  0  0  0
   72.9324   38.8073   38.3069 O   0  0  0  0  0  0  0  0  0  0  0  0
   74.5652   40.3816   38.9767 C   0  0  0  0  0  0  0  0  0  0  0  0
   75.2887   39.7305   39.9588 C   0  0  0  0  0  0  0  0  0  0  0  0
   76.3489   40.4299   40.5241 C   0  0  0  0  0  0  0  0  0  0  0  0
   76.6692   41.7196   40.0988 C   0  0  0  0  0  0  0  0  0  0  0  0
   71.9156   40.8740   36.4355 C   0  0  1  0  0  0  0  0  0  0  0  0
   70.5888   41.0268   37.1765 C   0  0  0  0  0  0  0  0  0  0  0  0
   70.1771   40.2178   37.9933 O   0  0  0  0  0  0  0  0  0  0  0  0
   69.8354   42.1373   36.9097 N   0  0  0  0  0  0  0  0  0  0  0  0
   70.1053   43.1934   36.0969 C   0  0  0  0  0  0  0  0  0  0  0  0
   69.3150   44.1162   36.0139 O   0  0  0  0  0  0  0  0  0  0  0  0
   71.4332   43.1791   35.4010 C   0  0  0  0  0  0  0  0  0  0  0  0
   71.9566   41.7628   35.1860 C   0  0  0  0  0  0  0  0  0  0  0  0
   76.1978   43.3424   38.7523 H   0  0  0  0  0  0  0  0  0  0  0  0
   75.0393   38.7228   40.2772 H   0  0  0  0  0  0  0  0  0  0  0  0
   76.9427   39.9641   41.3048 H   0  0  0  0  0  0  0  0  0  0  0  0
   77.5082   42.2398   40.5520 H   0  0  0  0  0  0  0  0  0  0  0  0
   71.9211   39.8373   36.0799 H   0  0  0  0  0  0  0  0  0  0  0  0
   68.9354   42.1820   37.3709 H   0  0  0  0  0  0  0  0  0  0  0  0
   71.3056   43.6670   34.4313 H   0  0  0  0  0  0  0  0  0  0  0  0
   72.1123   43.7972   35.9888 H   0  0  0  0  0  0  0  0  0  0  0  0
   72.9643   41.7932   34.7621 H   0  0  0  0  0  0  0  0  0  0  0  0
   71.3231   41.2966   34.4223 H   0  0  0  0  0  0  0  0  0  0  0  0
  1 20  1  0  0  0  0
  1  2  1  0  0  0  0
  1 11  2  0  0  0  0
  2  3  1  0  0  0  0
  2  8  2  0  0  0  0
  3  4  2  0  0  0  0
  3  5  1  0  0  0  0
  5  6  1  0  0  0  0
 12  5  1  0  0  0  0
  6  7  2  0  0  0  0
  6  8  1  0  0  0  0
  8  9  1  0  0  0  0
  9 21  1  0  0  0  0
  9 10  2  0  0  0  0
 10 22  1  0  0  0  0
 10 11  1  0  0  0  0
 11 23  1  0  0  0  0
 12 24  1  0  0  0  0
 12 13  1  0  0  0  0
 12 19  1  0  0  0  0
 13 14  2  0  0  0  0
 13 15  1  0  0  0  0
 15 25  1  0  0  0  0
 15 16  1  0  0  0  0
 16 17  2  0  0  0  0
 16 18  1  0  0  0  0
 18 26  1  0  0  0  0
 18 27  1  0  0  0  0
 18 19  1  0  0  0  0
 19 28  1  0  0  0  0
 19 29  1  0  0  0  0
M  ZZC   1 c1
M  ZZC   2 c2
M  ZZC   3 c3
M  ZZC   4 o1
M  ZZC   5 n1
M  ZZC   6 c4
M  ZZC   7 o2
M  ZZC   8 c5
M  ZZC   9 c6
M  ZZC  10 c7
M  ZZC  11 c8
M  ZZC  12 c9
M  ZZC  13 c10
M  ZZC  14 o3
M  ZZC  15 n2
M  ZZC  16 c11
M  ZZC  17 o4
M  ZZC  18 c12
M  ZZC  19 c13
M  ZZC  20 h11
M  ZZC  21 h61
M  ZZC  22 h71
M  ZZC  23 h81
M  ZZC  24 h91
M  ZZC  25 h21
M  ZZC  26 h121
M  ZZC  27 h122
M  ZZC  28 h131
M  ZZC  29 h132
M  ZZM   1 37
M  ZZI   1 125
M  ZZM   2 37
M  ZZI   2 124
M  ZZM   3 3
M  ZZI   3 121
M  ZZM   4 7
M  ZZI   4 81
M  ZZM   5 10
M  ZZI   5 192
M  ZZM   6 3
M  ZZI   6 121
M  ZZM   7 7
M  ZZI   7 81
M  ZZM   8 37
M  ZZI   8 124
M  ZZM   9 37
M  ZZI   9 125
M  ZZM  10 37
M  ZZI  10 125
M  ZZM  11 37
M  ZZI  11 125
M  ZZM  12 1
M  ZZI  12 113
M  ZZM  13 3
M  ZZI  13 121
M  ZZM  14 7
M  ZZI  14 81
M  ZZM  15 10
M  ZZI  15 191
M  ZZM  16 3
M  ZZI  16 121
M  ZZM  17 7
M  ZZI  17 81
M  ZZM  18 1
M  ZZI  18 112
M  ZZM  19 1
M  ZZI  19 112
M  ZZM  20 5
M  ZZI  20 1
M  ZZM  21 5
M  ZZI  21 1
M  ZZM  22 5
M  ZZI  22 1
M  ZZM  23 5
M  ZZI  23 1
M  ZZM  24 5
M  ZZI  24 1
M  ZZM  25 28
M  ZZI  25 11
M  ZZM  26 5
M  ZZI  26 1
M  ZZM  27 5
M  ZZI  27 1
M  ZZM  28 5
M  ZZI  28 1
M  ZZM  29 5
M  ZZI  29 1
M  END
> <IX>
1

> <NAME>
Cereblon_3MXF_40.pdb

> <Score>
-15.047379

> <Natom>
29

> <Nflex>
1

> <Hbond>
-4.386275

> <Hphob>
-3.614597

> <VwInt>
-22.741278

> <Dsolv>
13.895628

> <SolEl>
8.81462

> <Eintl>
7.289308

> <RecConf>
ND

> <projPath>
Cereblon_maps/

> <NAME_>
Cereblon_3MXF_40.pdb

$$$$
