Cereblon_5L2I_22.pdb
  MOLSOFT 04032206253D

 29 31  0  0  1  0  0  0  0  0999 V2000
   79.0073   42.4919   42.6746 C   0  0  0  0  0  0  0  0  0  0  0  0
   78.1878   42.1968   41.5994 C   0  0  0  0  0  0  0  0  0  0  0  0
   77.2706   41.0780   41.4139 C   0  0  0  0  0  0  0  0  0  0  0  0
   77.0920   40.2168   42.2615 O   0  0  0  0  0  0  0  0  0  0  0  0
   76.7287   41.2202   40.1495 N   0  0  0  0  0  0  0  0  0  0  0  0
   77.2243   42.3479   39.5267 C   0  0  0  0  0  0  0  0  0  0  0  0
   76.9873   42.7670   38.4011 O   0  0  0  0  0  0  0  0  0  0  0  0
   78.1599   42.9596   40.4708 C   0  0  0  0  0  0  0  0  0  0  0  0
   78.9588   44.0757   40.3279 C   0  0  0  0  0  0  0  0  0  0  0  0
   79.8016   44.3857   41.3891 C   0  0  0  0  0  0  0  0  0  0  0  0
   79.8260   43.6075   42.5470 C   0  0  0  0  0  0  0  0  0  0  0  0
   75.7211   40.3653   39.5161 C   0  0  2  0  0  0  0  0  0  0  0  0
   74.3405   40.9321   39.8047 C   0  0  0  0  0  0  0  0  0  0  0  0
   74.1514   42.1183   40.0175 O   0  0  0  0  0  0  0  0  0  0  0  0
   73.2905   40.0495   39.7312 N   0  0  0  0  0  0  0  0  0  0  0  0
   73.3301   38.7035   39.4610 C   0  0  0  0  0  0  0  0  0  0  0  0
   72.3160   38.0274   39.4057 O   0  0  0  0  0  0  0  0  0  0  0  0
   74.6950   38.1248   39.1813 C   0  0  0  0  0  0  0  0  0  0  0  0
   75.7773   38.8947   39.9173 C   0  0  0  0  0  0  0  0  0  0  0  0
   79.0207   41.8763   43.5699 H   0  0  0  0  0  0  0  0  0  0  0  0
   78.9272   44.6773   39.4271 H   0  0  0  0  0  0  0  0  0  0  0  0
   80.4512   45.2503   41.3177 H   0  0  0  0  0  0  0  0  0  0  0  0
   80.4957   43.8764   43.3590 H   0  0  0  0  0  0  0  0  0  0  0  0
   75.8611   40.4529   38.4366 H   0  0  0  0  0  0  0  0  0  0  0  0
   72.3721   40.4426   39.8955 H   0  0  0  0  0  0  0  0  0  0  0  0
   74.7036   37.0785   39.5031 H   0  0  0  0  0  0  0  0  0  0  0  0
   74.8542   38.1479   38.0988 H   0  0  0  0  0  0  0  0  0  0  0  0
   76.7629   38.4742   39.6928 H   0  0  0  0  0  0  0  0  0  0  0  0
   75.6164   38.7748   40.9924 H   0  0  0  0  0  0  0  0  0  0  0  0
  1 20  1  0  0  0  0
  1  2  1  0  0  0  0
  1 11  2  0  0  0  0
  2  3  1  0  0  0  0
  2  8  2  0  0  0  0
  3  4  2  0  0  0  0
  3  5  1  0  0  0  0
  5  6  1  0  0  0  0
 12  5  1  0  0  0  0
  6  7  2  0  0  0  0
  6  8  1  0  0  0  0
  8  9  1  0  0  0  0
  9 21  1  0  0  0  0
  9 10  2  0  0  0  0
 10 22  1  0  0  0  0
 10 11  1  0  0  0  0
 11 23  1  0  0  0  0
 12 24  1  0  0  0  0
 12 13  1  0  0  0  0
 12 19  1  0  0  0  0
 13 14  2  0  0  0  0
 13 15  1  0  0  0  0
 15 25  1  0  0  0  0
 15 16  1  0  0  0  0
 16 17  2  0  0  0  0
 16 18  1  0  0  0  0
 18 26  1  0  0  0  0
 18 27  1  0  0  0  0
 18 19  1  0  0  0  0
 19 28  1  0  0  0  0
 19 29  1  0  0  0  0
M  ZZC   1 c1
M  ZZC   2 c2
M  ZZC   3 c3
M  ZZC   4 o1
M  ZZC   5 n1
M  ZZC   6 c4
M  ZZC   7 o2
M  ZZC   8 c5
M  ZZC   9 c6
M  ZZC  10 c7
M  ZZC  11 c8
M  ZZC  12 c9
M  ZZC  13 c10
M  ZZC  14 o3
M  ZZC  15 n2
M  ZZC  16 c11
M  ZZC  17 o4
M  ZZC  18 c12
M  ZZC  19 c13
M  ZZC  20 h11
M  ZZC  21 h61
M  ZZC  22 h71
M  ZZC  23 h81
M  ZZC  24 h91
M  ZZC  25 h21
M  ZZC  26 h121
M  ZZC  27 h122
M  ZZC  28 h131
M  ZZC  29 h132
M  ZZM   1 37
M  ZZI   1 125
M  ZZM   2 37
M  ZZI   2 124
M  ZZM   3 3
M  ZZI   3 121
M  ZZM   4 7
M  ZZI   4 81
M  ZZM   5 10
M  ZZI   5 192
M  ZZM   6 3
M  ZZI   6 121
M  ZZM   7 7
M  ZZI   7 81
M  ZZM   8 37
M  ZZI   8 124
M  ZZM   9 37
M  ZZI   9 125
M  ZZM  10 37
M  ZZI  10 125
M  ZZM  11 37
M  ZZI  11 125
M  ZZM  12 1
M  ZZI  12 113
M  ZZM  13 3
M  ZZI  13 121
M  ZZM  14 7
M  ZZI  14 81
M  ZZM  15 10
M  ZZI  15 191
M  ZZM  16 3
M  ZZI  16 121
M  ZZM  17 7
M  ZZI  17 81
M  ZZM  18 1
M  ZZI  18 112
M  ZZM  19 1
M  ZZI  19 112
M  ZZM  20 5
M  ZZI  20 1
M  ZZM  21 5
M  ZZI  21 1
M  ZZM  22 5
M  ZZI  22 1
M  ZZM  23 5
M  ZZI  23 1
M  ZZM  24 5
M  ZZI  24 1
M  ZZM  25 28
M  ZZI  25 11
M  ZZM  26 5
M  ZZI  26 1
M  ZZM  27 5
M  ZZI  27 1
M  ZZM  28 5
M  ZZI  28 1
M  ZZM  29 5
M  ZZI  29 1
M  END
> <IX>
1

> <NAME>
Cereblon_5L2I_22.pdb

> <Score>
-19.315856

> <Natom>
29

> <Nflex>
1

> <Hbond>
-3.366212

> <Hphob>
-3.558978

> <VwInt>
-22.71066

> <Dsolv>
12.075269

> <SolEl>
5.677227

> <Eintl>
1.487358

> <RecConf>
ND

> <projPath>
Cereblon_maps/

> <NAME_>
Cereblon_5L2I_22.pdb

$$$$
