Cereblon_5GMP_1.pdb
  MOLSOFT 04032206243D

 29 31  0  0  1  0  0  0  0  0999 V2000
   78.9567   44.0769   40.3229 C   0  0  0  0  0  0  0  0  0  0  0  0
   78.1591   42.9597   40.4660 C   0  0  0  0  0  0  0  0  0  0  0  0
   77.2257   42.3445   39.5222 C   0  0  0  0  0  0  0  0  0  0  0  0
   76.9847   42.7693   38.3997 O   0  0  0  0  0  0  0  0  0  0  0  0
   76.7303   41.2183   40.1469 N   0  0  0  0  0  0  0  0  0  0  0  0
   77.2708   41.0784   41.4118 C   0  0  0  0  0  0  0  0  0  0  0  0
   77.0888   40.2206   42.2625 O   0  0  0  0  0  0  0  0  0  0  0  0
   78.1880   42.1976   41.5952 C   0  0  0  0  0  0  0  0  0  0  0  0
   79.0072   42.4941   42.6702 C   0  0  0  0  0  0  0  0  0  0  0  0
   79.8258   43.6097   42.5421 C   0  0  0  0  0  0  0  0  0  0  0  0
   79.8003   44.3873   41.3837 C   0  0  0  0  0  0  0  0  0  0  0  0
   75.7204   40.3647   39.5157 C   0  0  2  0  0  0  0  0  0  0  0  0
   74.3406   40.9337   39.8056 C   0  0  0  0  0  0  0  0  0  0  0  0
   74.1540   42.1207   40.0160 O   0  0  0  0  0  0  0  0  0  0  0  0
   73.2902   40.0516   39.7345 N   0  0  0  0  0  0  0  0  0  0  0  0
   73.3270   38.7062   39.4612 C   0  0  0  0  0  0  0  0  0  0  0  0
   72.3109   38.0331   39.4060 O   0  0  0  0  0  0  0  0  0  0  0  0
   74.6914   38.1254   39.1816 C   0  0  0  0  0  0  0  0  0  0  0  0
   75.7750   38.8943   39.9167 C   0  0  0  0  0  0  0  0  0  0  0  0
   78.9238   44.6782   39.4221 H   0  0  0  0  0  0  0  0  0  0  0  0
   79.0202   41.8789   43.5657 H   0  0  0  0  0  0  0  0  0  0  0  0
   80.4942   43.8787   43.3551 H   0  0  0  0  0  0  0  0  0  0  0  0
   80.4483   45.2532   41.3130 H   0  0  0  0  0  0  0  0  0  0  0  0
   75.8589   40.4524   38.4358 H   0  0  0  0  0  0  0  0  0  0  0  0
   72.3722   40.4459   39.8982 H   0  0  0  0  0  0  0  0  0  0  0  0
   74.6986   37.0798   39.5054 H   0  0  0  0  0  0  0  0  0  0  0  0
   74.8508   38.1483   38.0992 H   0  0  0  0  0  0  0  0  0  0  0  0
   76.7597   38.4717   39.6917 H   0  0  0  0  0  0  0  0  0  0  0  0
   75.6141   38.7754   40.9920 H   0  0  0  0  0  0  0  0  0  0  0  0
  1 20  1  0  0  0  0
  1  2  1  0  0  0  0
  1 11  2  0  0  0  0
  2  3  1  0  0  0  0
  2  8  2  0  0  0  0
  3  4  2  0  0  0  0
  3  5  1  0  0  0  0
  5  6  1  0  0  0  0
 12  5  1  0  0  0  0
  6  7  2  0  0  0  0
  6  8  1  0  0  0  0
  8  9  1  0  0  0  0
  9 21  1  0  0  0  0
  9 10  2  0  0  0  0
 10 22  1  0  0  0  0
 10 11  1  0  0  0  0
 11 23  1  0  0  0  0
 12 24  1  0  0  0  0
 12 13  1  0  0  0  0
 12 19  1  0  0  0  0
 13 14  2  0  0  0  0
 13 15  1  0  0  0  0
 15 25  1  0  0  0  0
 15 16  1  0  0  0  0
 16 17  2  0  0  0  0
 16 18  1  0  0  0  0
 18 26  1  0  0  0  0
 18 27  1  0  0  0  0
 18 19  1  0  0  0  0
 19 28  1  0  0  0  0
 19 29  1  0  0  0  0
M  ZZC   1 c1
M  ZZC   2 c2
M  ZZC   3 c3
M  ZZC   4 o1
M  ZZC   5 n1
M  ZZC   6 c4
M  ZZC   7 o2
M  ZZC   8 c5
M  ZZC   9 c6
M  ZZC  10 c7
M  ZZC  11 c8
M  ZZC  12 c9
M  ZZC  13 c10
M  ZZC  14 o3
M  ZZC  15 n2
M  ZZC  16 c11
M  ZZC  17 o4
M  ZZC  18 c12
M  ZZC  19 c13
M  ZZC  20 h11
M  ZZC  21 h61
M  ZZC  22 h71
M  ZZC  23 h81
M  ZZC  24 h91
M  ZZC  25 h21
M  ZZC  26 h121
M  ZZC  27 h122
M  ZZC  28 h131
M  ZZC  29 h132
M  ZZM   1 37
M  ZZI   1 125
M  ZZM   2 37
M  ZZI   2 124
M  ZZM   3 3
M  ZZI   3 121
M  ZZM   4 7
M  ZZI   4 81
M  ZZM   5 10
M  ZZI   5 192
M  ZZM   6 3
M  ZZI   6 121
M  ZZM   7 7
M  ZZI   7 81
M  ZZM   8 37
M  ZZI   8 124
M  ZZM   9 37
M  ZZI   9 125
M  ZZM  10 37
M  ZZI  10 125
M  ZZM  11 37
M  ZZI  11 125
M  ZZM  12 1
M  ZZI  12 113
M  ZZM  13 3
M  ZZI  13 121
M  ZZM  14 7
M  ZZI  14 81
M  ZZM  15 10
M  ZZI  15 191
M  ZZM  16 3
M  ZZI  16 121
M  ZZM  17 7
M  ZZI  17 81
M  ZZM  18 1
M  ZZI  18 112
M  ZZM  19 1
M  ZZI  19 112
M  ZZM  20 5
M  ZZI  20 1
M  ZZM  21 5
M  ZZI  21 1
M  ZZM  22 5
M  ZZI  22 1
M  ZZM  23 5
M  ZZI  23 1
M  ZZM  24 5
M  ZZI  24 1
M  ZZM  25 28
M  ZZI  25 11
M  ZZM  26 5
M  ZZI  26 1
M  ZZM  27 5
M  ZZI  27 1
M  ZZM  28 5
M  ZZI  28 1
M  ZZM  29 5
M  ZZI  29 1
M  END
> <IX>
1

> <NAME>
Cereblon_5GMP_1.pdb

> <Score>
-19.256886

> <Natom>
29

> <Nflex>
1

> <Hbond>
-3.316554

> <Hphob>
-3.570275

> <VwInt>
-22.717548

> <Dsolv>
12.114143

> <SolEl>
5.593444

> <Eintl>
1.443912

> <RecConf>
ND

> <projPath>
Cereblon_maps/

> <NAME_>
Cereblon_5GMP_1.pdb

$$$$
