Cereblon_6Y7K_3.pdb
  MOLSOFT 04032206303D

 29 31  0  0  1  0  0  0  0  0999 V2000
   78.9975   42.4827   42.6716 C   0  0  0  0  0  0  0  0  0  0  0  0
   78.1797   42.1906   41.5946 C   0  0  0  0  0  0  0  0  0  0  0  0
   77.2636   41.0719   41.4064 C   0  0  0  0  0  0  0  0  0  0  0  0
   77.0853   40.2086   42.2520 O   0  0  0  0  0  0  0  0  0  0  0  0
   76.7221   41.2172   40.1425 N   0  0  0  0  0  0  0  0  0  0  0  0
   77.2191   42.3448   39.5209 C   0  0  0  0  0  0  0  0  0  0  0  0
   76.9847   42.7635   38.3946 O   0  0  0  0  0  0  0  0  0  0  0  0
   78.1534   42.9551   40.4673 C   0  0  0  0  0  0  0  0  0  0  0  0
   78.9533   44.0709   40.3275 C   0  0  0  0  0  0  0  0  0  0  0  0
   79.7952   44.3780   41.3907 C   0  0  0  0  0  0  0  0  0  0  0  0
   79.8170   43.5983   42.5479 C   0  0  0  0  0  0  0  0  0  0  0  0
   75.7129   40.3638   39.5092 C   0  0  2  0  0  0  0  0  0  0  0  0
   74.3334   40.9337   39.7983 C   0  0  0  0  0  0  0  0  0  0  0  0
   74.1483   42.1197   40.0149 O   0  0  0  0  0  0  0  0  0  0  0  0
   73.2821   40.0531   39.7214 N   0  0  0  0  0  0  0  0  0  0  0  0
   73.3187   38.7078   39.4472 C   0  0  0  0  0  0  0  0  0  0  0  0
   72.3019   38.0359   39.3870 O   0  0  0  0  0  0  0  0  0  0  0  0
   74.6831   38.1250   39.1712 C   0  0  0  0  0  0  0  0  0  0  0  0
   75.7654   38.8926   39.9099 C   0  0  0  0  0  0  0  0  0  0  0  0
   79.0042   41.8668   43.5666 H   0  0  0  0  0  0  0  0  0  0  0  0
   78.9252   44.6727   39.4269 H   0  0  0  0  0  0  0  0  0  0  0  0
   80.4454   45.2425   41.3223 H   0  0  0  0  0  0  0  0  0  0  0  0
   80.4840   43.8654   43.3627 H   0  0  0  0  0  0  0  0  0  0  0  0
   75.8524   40.4525   38.4298 H   0  0  0  0  0  0  0  0  0  0  0  0
   72.3642   40.4478   39.8848 H   0  0  0  0  0  0  0  0  0  0  0  0
   74.6879   37.0789   39.4937 H   0  0  0  0  0  0  0  0  0  0  0  0
   74.8457   38.1474   38.0892 H   0  0  0  0  0  0  0  0  0  0  0  0
   76.7506   38.4697   39.6883 H   0  0  0  0  0  0  0  0  0  0  0  0
   75.6007   38.7733   40.9844 H   0  0  0  0  0  0  0  0  0  0  0  0
  1 20  1  0  0  0  0
  1  2  1  0  0  0  0
  1 11  2  0  0  0  0
  2  3  1  0  0  0  0
  2  8  2  0  0  0  0
  3  4  2  0  0  0  0
  3  5  1  0  0  0  0
  5  6  1  0  0  0  0
 12  5  1  0  0  0  0
  6  7  2  0  0  0  0
  6  8  1  0  0  0  0
  8  9  1  0  0  0  0
  9 21  1  0  0  0  0
  9 10  2  0  0  0  0
 10 22  1  0  0  0  0
 10 11  1  0  0  0  0
 11 23  1  0  0  0  0
 12 24  1  0  0  0  0
 12 13  1  0  0  0  0
 12 19  1  0  0  0  0
 13 14  2  0  0  0  0
 13 15  1  0  0  0  0
 15 25  1  0  0  0  0
 15 16  1  0  0  0  0
 16 17  2  0  0  0  0
 16 18  1  0  0  0  0
 18 26  1  0  0  0  0
 18 27  1  0  0  0  0
 18 19  1  0  0  0  0
 19 28  1  0  0  0  0
 19 29  1  0  0  0  0
M  ZZC   1 c1
M  ZZC   2 c2
M  ZZC   3 c3
M  ZZC   4 o1
M  ZZC   5 n1
M  ZZC   6 c4
M  ZZC   7 o2
M  ZZC   8 c5
M  ZZC   9 c6
M  ZZC  10 c7
M  ZZC  11 c8
M  ZZC  12 c9
M  ZZC  13 c10
M  ZZC  14 o3
M  ZZC  15 n2
M  ZZC  16 c11
M  ZZC  17 o4
M  ZZC  18 c12
M  ZZC  19 c13
M  ZZC  20 h11
M  ZZC  21 h61
M  ZZC  22 h71
M  ZZC  23 h81
M  ZZC  24 h91
M  ZZC  25 h21
M  ZZC  26 h121
M  ZZC  27 h122
M  ZZC  28 h131
M  ZZC  29 h132
M  ZZM   1 37
M  ZZI   1 125
M  ZZM   2 37
M  ZZI   2 124
M  ZZM   3 3
M  ZZI   3 121
M  ZZM   4 7
M  ZZI   4 81
M  ZZM   5 10
M  ZZI   5 192
M  ZZM   6 3
M  ZZI   6 121
M  ZZM   7 7
M  ZZI   7 81
M  ZZM   8 37
M  ZZI   8 124
M  ZZM   9 37
M  ZZI   9 125
M  ZZM  10 37
M  ZZI  10 125
M  ZZM  11 37
M  ZZI  11 125
M  ZZM  12 1
M  ZZI  12 113
M  ZZM  13 3
M  ZZI  13 121
M  ZZM  14 7
M  ZZI  14 81
M  ZZM  15 10
M  ZZI  15 191
M  ZZM  16 3
M  ZZI  16 121
M  ZZM  17 7
M  ZZI  17 81
M  ZZM  18 1
M  ZZI  18 112
M  ZZM  19 1
M  ZZI  19 112
M  ZZM  20 5
M  ZZI  20 1
M  ZZM  21 5
M  ZZI  21 1
M  ZZM  22 5
M  ZZI  22 1
M  ZZM  23 5
M  ZZI  23 1
M  ZZM  24 5
M  ZZI  24 1
M  ZZM  25 28
M  ZZI  25 11
M  ZZM  26 5
M  ZZI  26 1
M  ZZM  27 5
M  ZZI  27 1
M  ZZM  28 5
M  ZZI  28 1
M  ZZM  29 5
M  ZZI  29 1
M  END
> <IX>
1

> <NAME>
Cereblon_6Y7K_3.pdb

> <Score>
-19.335602

> <Natom>
29

> <Nflex>
1

> <Hbond>
-3.371789

> <Hphob>
-3.559614

> <VwInt>
-22.707683

> <Dsolv>
12.107524

> <SolEl>
5.614886

> <Eintl>
1.501969

> <RecConf>
ND

> <projPath>
Cereblon_maps/

> <NAME_>
Cereblon_6Y7K_3.pdb

$$$$
