Cereblon_5ML8_3.pdb
  MOLSOFT 04032206263D

 31 33  0  0  1  0  0  0  0  0999 V2000
   78.8136   41.6782   43.8186 N   0  0  0  0  0  0  0  0  0  0  0  0
   78.9070   42.4228   42.6323 C   0  0  0  0  0  0  0  0  0  0  0  0
   78.1012   42.1571   41.5379 C   0  0  0  0  0  0  0  0  0  0  0  0
   77.1802   41.0466   41.3310 C   0  0  0  0  0  0  0  0  0  0  0  0
   76.9995   40.1638   42.1567 O   0  0  0  0  0  0  0  0  0  0  0  0
   76.6457   41.2107   40.0685 N   0  0  0  0  0  0  0  0  0  0  0  0
   77.1665   42.3316   39.4547 C   0  0  0  0  0  0  0  0  0  0  0  0
   76.9535   42.7540   38.3256 O   0  0  0  0  0  0  0  0  0  0  0  0
   78.0976   42.9271   40.4144 C   0  0  0  0  0  0  0  0  0  0  0  0
   78.9079   44.0374   40.2943 C   0  0  0  0  0  0  0  0  0  0  0  0
   79.7236   44.3378   41.3791 C   0  0  0  0  0  0  0  0  0  0  0  0
   79.7113   43.5543   42.5347 C   0  0  0  0  0  0  0  0  0  0  0  0
   75.6260   40.3743   39.4318 C   0  0  2  0  0  0  0  0  0  0  0  0
   74.2548   40.9534   39.7364 C   0  0  0  0  0  0  0  0  0  0  0  0
   74.0844   42.1337   39.9930 O   0  0  0  0  0  0  0  0  0  0  0  0
   73.1940   40.0883   39.6224 N   0  0  0  0  0  0  0  0  0  0  0  0
   73.2184   38.7502   39.3117 C   0  0  0  0  0  0  0  0  0  0  0  0
   72.1933   38.0972   39.2051 O   0  0  0  0  0  0  0  0  0  0  0  0
   74.5811   38.1509   39.0581 C   0  0  0  0  0  0  0  0  0  0  0  0
   75.6590   38.8999   39.8216 C   0  0  0  0  0  0  0  0  0  0  0  0
   79.5544   41.7619   44.5113 H   0  0  0  0  0  0  0  0  0  0  0  0
   78.3242   40.7830   43.7759 H   0  0  0  0  0  0  0  0  0  0  0  0
   78.8996   44.6459   39.3977 H   0  0  0  0  0  0  0  0  0  0  0  0
   80.3703   45.2070   41.3350 H   0  0  0  0  0  0  0  0  0  0  0  0
   80.3421   43.8371   43.3719 H   0  0  0  0  0  0  0  0  0  0  0  0
   75.7609   40.4739   38.3536 H   0  0  0  0  0  0  0  0  0  0  0  0
   72.2788   40.4904   39.7833 H   0  0  0  0  0  0  0  0  0  0  0  0
   74.5657   37.1032   39.3748 H   0  0  0  0  0  0  0  0  0  0  0  0
   74.7689   38.1765   37.9801 H   0  0  0  0  0  0  0  0  0  0  0  0
   75.4739   38.7727   40.8923 H   0  0  0  0  0  0  0  0  0  0  0  0
   76.6436   38.4686   39.6143 H   0  0  0  0  0  0  0  0  0  0  0  0
  1  2  1  0  0  0  0
  1 21  1  0  0  0  0
  1 22  1  0  0  0  0
  2  3  1  0  0  0  0
  2 12  2  0  0  0  0
  3  9  2  0  0  0  0
  3  4  1  0  0  0  0
  4  5  2  0  0  0  0
  4  6  1  0  0  0  0
  6  7  1  0  0  0  0
 13  6  1  0  0  0  0
  7  8  2  0  0  0  0
  7  9  1  0  0  0  0
  9 10  1  0  0  0  0
 10 23  1  0  0  0  0
 10 11  2  0  0  0  0
 11 12  1  0  0  0  0
 11 24  1  0  0  0  0
 12 25  1  0  0  0  0
 13 26  1  0  0  0  0
 13 14  1  0  0  0  0
 13 20  1  0  0  0  0
 14 15  2  0  0  0  0
 14 16  1  0  0  0  0
 16 27  1  0  0  0  0
 16 17  1  0  0  0  0
 17 18  2  0  0  0  0
 17 19  1  0  0  0  0
 19 28  1  0  0  0  0
 19 29  1  0  0  0  0
 19 20  1  0  0  0  0
 20 30  1  0  0  0  0
 20 31  1  0  0  0  0
M  ZZC   1 n1
M  ZZC   2 c1
M  ZZC   3 c2
M  ZZC   4 c3
M  ZZC   5 o1
M  ZZC   6 n2
M  ZZC   7 c4
M  ZZC   8 o2
M  ZZC   9 c5
M  ZZC  10 c6
M  ZZC  11 c7
M  ZZC  12 c8
M  ZZC  13 c9
M  ZZC  14 c10
M  ZZC  15 o3
M  ZZC  16 n3
M  ZZC  17 c11
M  ZZC  18 o4
M  ZZC  19 c12
M  ZZC  20 c13
M  ZZC  21 h11
M  ZZC  22 h12
M  ZZC  23 h61
M  ZZC  24 h71
M  ZZC  25 h81
M  ZZC  26 h91
M  ZZC  27 h31
M  ZZC  28 h121
M  ZZC  29 h122
M  ZZC  30 h131
M  ZZC  31 h132
M  ZZM   1 40
M  ZZI   1 224
M  ZZM   2 37
M  ZZI   2 124
M  ZZM   3 37
M  ZZI   3 124
M  ZZM   4 3
M  ZZI   4 121
M  ZZM   5 7
M  ZZI   5 81
M  ZZM   6 10
M  ZZI   6 192
M  ZZM   7 3
M  ZZI   7 121
M  ZZM   8 7
M  ZZI   8 81
M  ZZM   9 37
M  ZZI   9 124
M  ZZM  10 37
M  ZZI  10 125
M  ZZM  11 37
M  ZZI  11 125
M  ZZM  12 37
M  ZZI  12 125
M  ZZM  13 1
M  ZZI  13 113
M  ZZM  14 3
M  ZZI  14 121
M  ZZM  15 7
M  ZZI  15 81
M  ZZM  16 10
M  ZZI  16 191
M  ZZM  17 3
M  ZZI  17 121
M  ZZM  18 7
M  ZZI  18 81
M  ZZM  19 1
M  ZZI  19 112
M  ZZM  20 1
M  ZZI  20 112
M  ZZM  21 28
M  ZZI  21 11
M  ZZM  22 28
M  ZZI  22 11
M  ZZM  23 5
M  ZZI  23 1
M  ZZM  24 5
M  ZZI  24 1
M  ZZM  25 5
M  ZZI  25 1
M  ZZM  26 5
M  ZZI  26 1
M  ZZM  27 28
M  ZZI  27 11
M  ZZM  28 5
M  ZZI  28 1
M  ZZM  29 5
M  ZZI  29 1
M  ZZM  30 5
M  ZZI  30 1
M  ZZM  31 5
M  ZZI  31 1
M  END
> <IX>
1

> <NAME>
Cereblon_5ML8_3.pdb

> <Score>
-18.600161

> <Natom>
31

> <Nflex>
1

> <Hbond>
-3.708833

> <Hphob>
-3.587276

> <VwInt>
-24.184252

> <Dsolv>
15.18623

> <SolEl>
6.614955

> <Eintl>
1.692284

> <RecConf>
ND

> <projPath>
Cereblon_maps/

> <NAME_>
Cereblon_5ML8_3.pdb

$$$$
