Cereblon_5J8O_9.pdb
  MOLSOFT 04032206253D

 29 31  0  0  1  0  0  0  0  0999 V2000
   78.9960   42.4810   42.6727 C   0  0  0  0  0  0  0  0  0  0  0  0
   78.1783   42.1890   41.5956 C   0  0  0  0  0  0  0  0  0  0  0  0
   77.2632   41.0695   41.4067 C   0  0  0  0  0  0  0  0  0  0  0  0
   77.0858   40.2054   42.2518 O   0  0  0  0  0  0  0  0  0  0  0  0
   76.7219   41.2154   40.1430 N   0  0  0  0  0  0  0  0  0  0  0  0
   77.2187   42.3434   39.5217 C   0  0  0  0  0  0  0  0  0  0  0  0
   76.9841   42.7623   38.3956 O   0  0  0  0  0  0  0  0  0  0  0  0
   78.1528   42.9536   40.4685 C   0  0  0  0  0  0  0  0  0  0  0  0
   78.9524   44.0698   40.3296 C   0  0  0  0  0  0  0  0  0  0  0  0
   79.7940   44.3763   41.3930 C   0  0  0  0  0  0  0  0  0  0  0  0
   79.8159   43.5961   42.5498 C   0  0  0  0  0  0  0  0  0  0  0  0
   75.7124   40.3625   39.5094 C   0  0  2  0  0  0  0  0  0  0  0  0
   74.3330   40.9328   39.7978 C   0  0  0  0  0  0  0  0  0  0  0  0
   74.1482   42.1188   40.0149 O   0  0  0  0  0  0  0  0  0  0  0  0
   73.2814   40.0525   39.7214 N   0  0  0  0  0  0  0  0  0  0  0  0
   73.3173   38.7073   39.4469 C   0  0  0  0  0  0  0  0  0  0  0  0
   72.3001   38.0362   39.3866 O   0  0  0  0  0  0  0  0  0  0  0  0
   74.6818   38.1244   39.1702 C   0  0  0  0  0  0  0  0  0  0  0  0
   75.7641   38.8917   39.9095 C   0  0  0  0  0  0  0  0  0  0  0  0
   79.0020   41.8652   43.5678 H   0  0  0  0  0  0  0  0  0  0  0  0
   78.9247   44.6718   39.4291 H   0  0  0  0  0  0  0  0  0  0  0  0
   80.4448   45.2404   41.3249 H   0  0  0  0  0  0  0  0  0  0  0  0
   80.4828   43.8629   43.3647 H   0  0  0  0  0  0  0  0  0  0  0  0
   75.8522   40.4520   38.4300 H   0  0  0  0  0  0  0  0  0  0  0  0
   72.3637   40.4477   39.8843 H   0  0  0  0  0  0  0  0  0  0  0  0
   74.6863   37.0784   39.4928 H   0  0  0  0  0  0  0  0  0  0  0  0
   74.8445   38.1468   38.0883 H   0  0  0  0  0  0  0  0  0  0  0  0
   75.5991   38.7714   40.9839 H   0  0  0  0  0  0  0  0  0  0  0  0
   76.7492   38.4676   39.6891 H   0  0  0  0  0  0  0  0  0  0  0  0
  1 20  1  0  0  0  0
  1  2  1  0  0  0  0
  1 11  2  0  0  0  0
  2  3  1  0  0  0  0
  2  8  2  0  0  0  0
  3  4  2  0  0  0  0
  3  5  1  0  0  0  0
  5  6  1  0  0  0  0
 12  5  1  0  0  0  0
  6  7  2  0  0  0  0
  6  8  1  0  0  0  0
  8  9  1  0  0  0  0
  9 21  1  0  0  0  0
  9 10  2  0  0  0  0
 10 22  1  0  0  0  0
 10 11  1  0  0  0  0
 11 23  1  0  0  0  0
 12 24  1  0  0  0  0
 12 13  1  0  0  0  0
 12 19  1  0  0  0  0
 13 14  2  0  0  0  0
 13 15  1  0  0  0  0
 15 25  1  0  0  0  0
 15 16  1  0  0  0  0
 16 17  2  0  0  0  0
 16 18  1  0  0  0  0
 18 26  1  0  0  0  0
 18 27  1  0  0  0  0
 18 19  1  0  0  0  0
 19 28  1  0  0  0  0
 19 29  1  0  0  0  0
M  ZZC   1 c1
M  ZZC   2 c2
M  ZZC   3 c3
M  ZZC   4 o1
M  ZZC   5 n1
M  ZZC   6 c4
M  ZZC   7 o2
M  ZZC   8 c5
M  ZZC   9 c6
M  ZZC  10 c7
M  ZZC  11 c8
M  ZZC  12 c9
M  ZZC  13 c10
M  ZZC  14 o3
M  ZZC  15 n2
M  ZZC  16 c11
M  ZZC  17 o4
M  ZZC  18 c12
M  ZZC  19 c13
M  ZZC  20 h11
M  ZZC  21 h61
M  ZZC  22 h71
M  ZZC  23 h81
M  ZZC  24 h91
M  ZZC  25 h21
M  ZZC  26 h121
M  ZZC  27 h122
M  ZZC  28 h131
M  ZZC  29 h132
M  ZZM   1 37
M  ZZI   1 125
M  ZZM   2 37
M  ZZI   2 124
M  ZZM   3 3
M  ZZI   3 121
M  ZZM   4 7
M  ZZI   4 81
M  ZZM   5 10
M  ZZI   5 192
M  ZZM   6 3
M  ZZI   6 121
M  ZZM   7 7
M  ZZI   7 81
M  ZZM   8 37
M  ZZI   8 124
M  ZZM   9 37
M  ZZI   9 125
M  ZZM  10 37
M  ZZI  10 125
M  ZZM  11 37
M  ZZI  11 125
M  ZZM  12 1
M  ZZI  12 113
M  ZZM  13 3
M  ZZI  13 121
M  ZZM  14 7
M  ZZI  14 81
M  ZZM  15 10
M  ZZI  15 191
M  ZZM  16 3
M  ZZI  16 121
M  ZZM  17 7
M  ZZI  17 81
M  ZZM  18 1
M  ZZI  18 112
M  ZZM  19 1
M  ZZI  19 112
M  ZZM  20 5
M  ZZI  20 1
M  ZZM  21 5
M  ZZI  21 1
M  ZZM  22 5
M  ZZI  22 1
M  ZZM  23 5
M  ZZI  23 1
M  ZZM  24 5
M  ZZI  24 1
M  ZZM  25 28
M  ZZI  25 11
M  ZZM  26 5
M  ZZI  26 1
M  ZZM  27 5
M  ZZI  27 1
M  ZZM  28 5
M  ZZI  28 1
M  ZZM  29 5
M  ZZI  29 1
M  END
> <IX>
1

> <NAME>
Cereblon_5J8O_9.pdb

> <Score>
-19.395284

> <Natom>
29

> <Nflex>
1

> <Hbond>
-3.372102

> <Hphob>
-3.519215

> <VwInt>
-22.723329

> <Dsolv>
12.059845

> <SolEl>
5.551479

> <Eintl>
1.514127

> <RecConf>
ND

> <projPath>
Cereblon_maps/

> <NAME_>
Cereblon_5J8O_9.pdb

$$$$
