Cereblon_1HWK_5.pdb
  MOLSOFT 04032206193D

 31 33  0  0  1  0  0  0  0  0999 V2000
   75.3829   36.6192   39.1989 N   0  0  0  0  0  0  0  0  0  0  0  0
   75.6523   37.8914   39.7275 C   0  0  0  0  0  0  0  0  0  0  0  0
   75.0176   39.0336   39.2646 C   0  0  0  0  0  0  0  0  0  0  0  0
   73.9600   39.1749   38.2639 C   0  0  0  0  0  0  0  0  0  0  0  0
   73.4441   38.2347   37.6756 O   0  0  0  0  0  0  0  0  0  0  0  0
   73.6985   40.5256   38.1531 N   0  0  0  0  0  0  0  0  0  0  0  0
   74.4575   41.2392   39.0639 C   0  0  0  0  0  0  0  0  0  0  0  0
   74.4492   42.4283   39.3420 O   0  0  0  0  0  0  0  0  0  0  0  0
   75.3277   40.2744   39.7279 C   0  0  0  0  0  0  0  0  0  0  0  0
   76.3174   40.4870   40.6686 C   0  0  0  0  0  0  0  0  0  0  0  0
   76.9930   39.3647   41.1273 C   0  0  0  0  0  0  0  0  0  0  0  0
   76.6714   38.0915   40.6556 C   0  0  0  0  0  0  0  0  0  0  0  0
   72.6714   41.0636   37.2482 C   0  0  1  0  0  0  0  0  0  0  0  0
   71.3620   41.2704   38.0030 C   0  0  0  0  0  0  0  0  0  0  0  0
   71.0445   40.6174   38.9863 O   0  0  0  0  0  0  0  0  0  0  0  0
   70.4959   42.1931   37.4623 N   0  0  0  0  0  0  0  0  0  0  0  0
   70.6899   43.0380   36.4010 C   0  0  0  0  0  0  0  0  0  0  0  0
   69.8682   43.8944   36.1116 O   0  0  0  0  0  0  0  0  0  0  0  0
   71.9617   42.8212   35.6204 C   0  0  0  0  0  0  0  0  0  0  0  0
   73.0873   42.3423   36.5237 C   0  0  0  0  0  0  0  0  0  0  0  0
   75.7405   35.7963   39.6792 H   0  0  0  0  0  0  0  0  0  0  0  0
   74.5546   36.5113   38.6110 H   0  0  0  0  0  0  0  0  0  0  0  0
   76.5722   41.4823   41.0195 H   0  0  0  0  0  0  0  0  0  0  0  0
   77.7888   39.4825   41.8570 H   0  0  0  0  0  0  0  0  0  0  0  0
   77.2349   37.2397   41.0226 H   0  0  0  0  0  0  0  0  0  0  0  0
   72.4617   40.2926   36.4979 H   0  0  0  0  0  0  0  0  0  0  0  0
   69.6254   42.3255   37.9565 H   0  0  0  0  0  0  0  0  0  0  0  0
   71.7607   42.1002   34.8212 H   0  0  0  0  0  0  0  0  0  0  0  0
   72.2412   43.7712   35.1604 H   0  0  0  0  0  0  0  0  0  0  0  0
   73.9916   42.1654   35.9327 H   0  0  0  0  0  0  0  0  0  0  0  0
   73.3305   43.1365   37.2348 H   0  0  0  0  0  0  0  0  0  0  0  0
  1  2  1  0  0  0  0
  1 21  1  0  0  0  0
  1 22  1  0  0  0  0
  2  3  1  0  0  0  0
  2 12  2  0  0  0  0
  3  9  2  0  0  0  0
  3  4  1  0  0  0  0
  4  5  2  0  0  0  0
  4  6  1  0  0  0  0
  6  7  1  0  0  0  0
 13  6  1  0  0  0  0
  7  8  2  0  0  0  0
  7  9  1  0  0  0  0
  9 10  1  0  0  0  0
 10 23  1  0  0  0  0
 10 11  2  0  0  0  0
 11 12  1  0  0  0  0
 11 24  1  0  0  0  0
 12 25  1  0  0  0  0
 13 26  1  0  0  0  0
 13 14  1  0  0  0  0
 13 20  1  0  0  0  0
 14 15  2  0  0  0  0
 14 16  1  0  0  0  0
 16 27  1  0  0  0  0
 16 17  1  0  0  0  0
 17 18  2  0  0  0  0
 17 19  1  0  0  0  0
 19 28  1  0  0  0  0
 19 29  1  0  0  0  0
 19 20  1  0  0  0  0
 20 30  1  0  0  0  0
 20 31  1  0  0  0  0
M  ZZC   1 n1
M  ZZC   2 c1
M  ZZC   3 c2
M  ZZC   4 c3
M  ZZC   5 o1
M  ZZC   6 n2
M  ZZC   7 c4
M  ZZC   8 o2
M  ZZC   9 c5
M  ZZC  10 c6
M  ZZC  11 c7
M  ZZC  12 c8
M  ZZC  13 c9
M  ZZC  14 c10
M  ZZC  15 o3
M  ZZC  16 n3
M  ZZC  17 c11
M  ZZC  18 o4
M  ZZC  19 c12
M  ZZC  20 c13
M  ZZC  21 h11
M  ZZC  22 h12
M  ZZC  23 h61
M  ZZC  24 h71
M  ZZC  25 h81
M  ZZC  26 h91
M  ZZC  27 h31
M  ZZC  28 h121
M  ZZC  29 h122
M  ZZC  30 h131
M  ZZC  31 h132
M  ZZM   1 40
M  ZZI   1 224
M  ZZM   2 37
M  ZZI   2 124
M  ZZM   3 37
M  ZZI   3 124
M  ZZM   4 3
M  ZZI   4 121
M  ZZM   5 7
M  ZZI   5 81
M  ZZM   6 10
M  ZZI   6 192
M  ZZM   7 3
M  ZZI   7 121
M  ZZM   8 7
M  ZZI   8 81
M  ZZM   9 37
M  ZZI   9 124
M  ZZM  10 37
M  ZZI  10 125
M  ZZM  11 37
M  ZZI  11 125
M  ZZM  12 37
M  ZZI  12 125
M  ZZM  13 1
M  ZZI  13 113
M  ZZM  14 3
M  ZZI  14 121
M  ZZM  15 7
M  ZZI  15 81
M  ZZM  16 10
M  ZZI  16 191
M  ZZM  17 3
M  ZZI  17 121
M  ZZM  18 7
M  ZZI  18 81
M  ZZM  19 1
M  ZZI  19 112
M  ZZM  20 1
M  ZZI  20 112
M  ZZM  21 28
M  ZZI  21 11
M  ZZM  22 28
M  ZZI  22 11
M  ZZM  23 5
M  ZZI  23 1
M  ZZM  24 5
M  ZZI  24 1
M  ZZM  25 5
M  ZZI  25 1
M  ZZM  26 5
M  ZZI  26 1
M  ZZM  27 28
M  ZZI  27 11
M  ZZM  28 5
M  ZZI  28 1
M  ZZM  29 5
M  ZZI  29 1
M  ZZM  30 5
M  ZZI  30 1
M  ZZM  31 5
M  ZZI  31 1
M  END
> <IX>
1

> <NAME>
Cereblon_1HWK_5.pdb

> <Score>
-21.003812

> <Natom>
31

> <Nflex>
1

> <Hbond>
-4.546586

> <Hphob>
-3.54647

> <VwInt>
-22.811199

> <Dsolv>
13.495244

> <SolEl>
7.122755

> <Eintl>
0.439891

> <RecConf>
ND

> <projPath>
Cereblon_maps/

> <NAME_>
Cereblon_1HWK_5.pdb

$$$$
