Cereblon_1FKH_6.pdb
  MOLSOFT 04032206193D

 30 32  0  0  1  0  0  0  0  0999 V2000
   75.7017   37.9185   39.7495 C   0  0  0  0  0  0  0  0  0  0  0  0
   74.9979   39.0131   39.2768 C   0  0  0  0  0  0  0  0  0  0  0  0
   75.3039   40.2663   39.7263 C   0  0  0  0  0  0  0  0  0  0  0  0
   74.4104   41.2202   39.0693 C   0  0  0  0  0  0  0  0  0  0  0  0
   74.4123   42.4163   39.3174 O   0  0  0  0  0  0  0  0  0  0  0  0
   73.6322   40.4943   38.1800 N   0  0  0  0  0  0  0  0  0  0  0  0
   72.6001   41.0123   37.2671 C   0  0  1  0  0  0  0  0  0  0  0  0
   71.2794   41.2510   37.9968 C   0  0  0  0  0  0  0  0  0  0  0  0
   70.9109   40.5828   38.9521 O   0  0  0  0  0  0  0  0  0  0  0  0
   70.4548   42.2100   37.4554 N   0  0  0  0  0  0  0  0  0  0  0  0
   70.6689   43.0223   36.3741 C   0  0  0  0  0  0  0  0  0  0  0  0
   69.8734   43.8987   36.0710 O   0  0  0  0  0  0  0  0  0  0  0  0
   71.9231   42.7377   35.5872 C   0  0  0  0  0  0  0  0  0  0  0  0
   73.0400   42.2599   36.5020 C   0  0  0  0  0  0  0  0  0  0  0  0
   73.8876   39.0679   38.2896 C   0  0  0  0  0  0  0  0  0  0  0  0
   76.3108   40.5198   40.6400 C   0  0  0  0  0  0  0  0  0  0  0  0
   77.0187   39.4268   41.1173 C   0  0  0  0  0  0  0  0  0  0  0  0
   76.7155   38.1418   40.6745 C   0  0  0  0  0  0  0  0  0  0  0  0
   75.4779   36.9132   39.4065 H   0  0  0  0  0  0  0  0  0  0  0  0
   72.4065   40.2203   36.5341 H   0  0  0  0  0  0  0  0  0  0  0  0
   69.5848   42.3689   37.9422 H   0  0  0  0  0  0  0  0  0  0  0  0
   71.6912   41.9905   34.8207 H   0  0  0  0  0  0  0  0  0  0  0  0
   72.2254   43.6590   35.0850 H   0  0  0  0  0  0  0  0  0  0  0  0
   73.9381   42.0439   35.9145 H   0  0  0  0  0  0  0  0  0  0  0  0
   73.2999   43.0708   37.1885 H   0  0  0  0  0  0  0  0  0  0  0  0
   74.1819   38.6653   37.3147 H   0  0  0  0  0  0  0  0  0  0  0  0
   72.9888   38.5649   38.6624 H   0  0  0  0  0  0  0  0  0  0  0  0
   76.5467   41.5282   40.9643 H   0  0  0  0  0  0  0  0  0  0  0  0
   77.8164   39.5774   41.8384 H   0  0  0  0  0  0  0  0  0  0  0  0
   77.2853   37.3002   41.0551 H   0  0  0  0  0  0  0  0  0  0  0  0
  1 19  1  0  0  0  0
  1 18  2  0  0  0  0
  1  2  1  0  0  0  0
  2  3  2  0  0  0  0
  2 15  1  0  0  0  0
  3 16  1  0  0  0  0
  3  4  1  0  0  0  0
  4  6  1  0  0  0  0
  4  5  2  0  0  0  0
  6 15  1  0  0  0  0
  7  6  1  0  0  0  0
  7 20  1  0  0  0  0
  7  8  1  0  0  0  0
  7 14  1  0  0  0  0
  8  9  2  0  0  0  0
  8 10  1  0  0  0  0
 10 21  1  0  0  0  0
 10 11  1  0  0  0  0
 11 12  2  0  0  0  0
 11 13  1  0  0  0  0
 13 22  1  0  0  0  0
 13 23  1  0  0  0  0
 13 14  1  0  0  0  0
 14 24  1  0  0  0  0
 14 25  1  0  0  0  0
 15 26  1  0  0  0  0
 15 27  1  0  0  0  0
 16 17  2  0  0  0  0
 16 28  1  0  0  0  0
 17 18  1  0  0  0  0
 17 29  1  0  0  0  0
 18 30  1  0  0  0  0
M  ZZC   1 c1
M  ZZC   2 c2
M  ZZC   3 c3
M  ZZC   4 c4
M  ZZC   5 o1
M  ZZC   6 n1
M  ZZC   7 c5
M  ZZC   8 c6
M  ZZC   9 o2
M  ZZC  10 n2
M  ZZC  11 c7
M  ZZC  12 o3
M  ZZC  13 c8
M  ZZC  14 c9
M  ZZC  15 c10
M  ZZC  16 c11
M  ZZC  17 c12
M  ZZC  18 c13
M  ZZC  19 h11
M  ZZC  20 h51
M  ZZC  21 h21
M  ZZC  22 h81
M  ZZC  23 h82
M  ZZC  24 h91
M  ZZC  25 h92
M  ZZC  26 h101
M  ZZC  27 h102
M  ZZC  28 h111
M  ZZC  29 h121
M  ZZC  30 h131
M  ZZM   1 37
M  ZZI   1 125
M  ZZM   2 37
M  ZZI   2 124
M  ZZM   3 37
M  ZZI   3 124
M  ZZM   4 3
M  ZZI   4 121
M  ZZM   5 7
M  ZZI   5 81
M  ZZM   6 10
M  ZZI   6 192
M  ZZM   7 1
M  ZZI   7 113
M  ZZM   8 3
M  ZZI   8 121
M  ZZM   9 7
M  ZZI   9 81
M  ZZM  10 10
M  ZZI  10 191
M  ZZM  11 3
M  ZZI  11 121
M  ZZM  12 7
M  ZZI  12 81
M  ZZM  13 1
M  ZZI  13 112
M  ZZM  14 1
M  ZZI  14 112
M  ZZM  15 1
M  ZZI  15 112
M  ZZM  16 37
M  ZZI  16 125
M  ZZM  17 37
M  ZZI  17 125
M  ZZM  18 37
M  ZZI  18 125
M  ZZM  19 5
M  ZZI  19 1
M  ZZM  20 5
M  ZZI  20 1
M  ZZM  21 28
M  ZZI  21 11
M  ZZM  22 5
M  ZZI  22 1
M  ZZM  23 5
M  ZZI  23 1
M  ZZM  24 5
M  ZZI  24 1
M  ZZM  25 5
M  ZZI  25 1
M  ZZM  26 5
M  ZZI  26 1
M  ZZM  27 5
M  ZZI  27 1
M  ZZM  28 5
M  ZZI  28 1
M  ZZM  29 5
M  ZZI  29 1
M  ZZM  30 5
M  ZZI  30 1
M  END
> <IX>
1

> <NAME>
Cereblon_1FKH_6.pdb

> <Score>
-20.646647

> <Natom>
30

> <Nflex>
1

> <Hbond>
-4.628884

> <Hphob>
-3.673666

> <VwInt>
-21.994815

> <Dsolv>
13.282743

> <SolEl>
5.963928

> <Eintl>
1.703918

> <RecConf>
ND

> <projPath>
Cereblon_maps/

> <NAME_>
Cereblon_1FKH_6.pdb

$$$$
