Cereblon_4QNQ_42.pdb
  MOLSOFT 04032206233D

 31 33  0  0  1  0  0  0  0  0999 V2000
   78.0655   40.6325   42.6480 N   0  0  0  0  0  0  0  0  0  0  0  0
   78.1197   41.7216   41.7631 C   0  0  0  0  0  0  0  0  0  0  0  0
   77.2935   41.8159   40.6520 C   0  0  0  0  0  0  0  0  0  0  0  0
   76.2249   40.9273   40.2010 C   0  0  0  0  0  0  0  0  0  0  0  0
   75.9745   39.8414   40.7048 O   0  0  0  0  0  0  0  0  0  0  0  0
   75.6047   41.5575   39.1380 N   0  0  0  0  0  0  0  0  0  0  0  0
   76.3316   42.6670   38.7561 C   0  0  0  0  0  0  0  0  0  0  0  0
   76.2291   43.3672   37.7601 O   0  0  0  0  0  0  0  0  0  0  0  0
   77.3686   42.8512   39.7711 C   0  0  0  0  0  0  0  0  0  0  0  0
   78.3098   43.8559   39.8998 C   0  0  0  0  0  0  0  0  0  0  0  0
   79.1771   43.7709   40.9812 C   0  0  0  0  0  0  0  0  0  0  0  0
   79.0795   42.7227   41.8981 C   0  0  0  0  0  0  0  0  0  0  0  0
   74.3557   41.0457   38.5452 C   0  0  1  0  0  0  0  0  0  0  0  0
   73.2207   41.3231   39.5221 C   0  0  0  0  0  0  0  0  0  0  0  0
   73.4011   41.6119   40.6926 O   0  0  0  0  0  0  0  0  0  0  0  0
   71.9492   41.1752   39.0287 N   0  0  0  0  0  0  0  0  0  0  0  0
   71.5671   40.9329   37.7349 C   0  0  0  0  0  0  0  0  0  0  0  0
   70.4038   40.6877   37.4542 O   0  0  0  0  0  0  0  0  0  0  0  0
   72.6800   40.9312   36.7074 C   0  0  0  0  0  0  0  0  0  0  0  0
   73.9207   41.6571   37.2129 C   0  0  0  0  0  0  0  0  0  0  0  0
   78.6425   40.6220   43.4879 H   0  0  0  0  0  0  0  0  0  0  0  0
   77.2699   39.9949   42.5902 H   0  0  0  0  0  0  0  0  0  0  0  0
   78.3676   44.6740   39.1904 H   0  0  0  0  0  0  0  0  0  0  0  0
   79.9344   44.5359   41.1216 H   0  0  0  0  0  0  0  0  0  0  0  0
   79.7688   42.6925   42.7361 H   0  0  0  0  0  0  0  0  0  0  0  0
   74.4528   39.9564   38.4660 H   0  0  0  0  0  0  0  0  0  0  0  0
   71.2005   41.2740   39.7020 H   0  0  0  0  0  0  0  0  0  0  0  0
   72.9152   39.8903   36.4617 H   0  0  0  0  0  0  0  0  0  0  0  0
   72.3141   41.4195   35.7983 H   0  0  0  0  0  0  0  0  0  0  0  0
   74.7121   41.5977   36.4645 H   0  0  0  0  0  0  0  0  0  0  0  0
   73.6909   42.7221   37.3364 H   0  0  0  0  0  0  0  0  0  0  0  0
  1  2  1  0  0  0  0
  1 21  1  0  0  0  0
  1 22  1  0  0  0  0
  2  3  1  0  0  0  0
  2 12  2  0  0  0  0
  3  9  2  0  0  0  0
  3  4  1  0  0  0  0
  4  5  2  0  0  0  0
  4  6  1  0  0  0  0
  6  7  1  0  0  0  0
 13  6  1  0  0  0  0
  7  8  2  0  0  0  0
  7  9  1  0  0  0  0
  9 10  1  0  0  0  0
 10 23  1  0  0  0  0
 10 11  2  0  0  0  0
 11 12  1  0  0  0  0
 11 24  1  0  0  0  0
 12 25  1  0  0  0  0
 13 26  1  0  0  0  0
 13 14  1  0  0  0  0
 13 20  1  0  0  0  0
 14 15  2  0  0  0  0
 14 16  1  0  0  0  0
 16 27  1  0  0  0  0
 16 17  1  0  0  0  0
 17 18  2  0  0  0  0
 17 19  1  0  0  0  0
 19 28  1  0  0  0  0
 19 29  1  0  0  0  0
 19 20  1  0  0  0  0
 20 30  1  0  0  0  0
 20 31  1  0  0  0  0
M  ZZC   1 n1
M  ZZC   2 c1
M  ZZC   3 c2
M  ZZC   4 c3
M  ZZC   5 o1
M  ZZC   6 n2
M  ZZC   7 c4
M  ZZC   8 o2
M  ZZC   9 c5
M  ZZC  10 c6
M  ZZC  11 c7
M  ZZC  12 c8
M  ZZC  13 c9
M  ZZC  14 c10
M  ZZC  15 o3
M  ZZC  16 n3
M  ZZC  17 c11
M  ZZC  18 o4
M  ZZC  19 c12
M  ZZC  20 c13
M  ZZC  21 h11
M  ZZC  22 h12
M  ZZC  23 h61
M  ZZC  24 h71
M  ZZC  25 h81
M  ZZC  26 h91
M  ZZC  27 h31
M  ZZC  28 h121
M  ZZC  29 h122
M  ZZC  30 h131
M  ZZC  31 h132
M  ZZM   1 40
M  ZZI   1 224
M  ZZM   2 37
M  ZZI   2 124
M  ZZM   3 37
M  ZZI   3 124
M  ZZM   4 3
M  ZZI   4 121
M  ZZM   5 7
M  ZZI   5 81
M  ZZM   6 10
M  ZZI   6 192
M  ZZM   7 3
M  ZZI   7 121
M  ZZM   8 7
M  ZZI   8 81
M  ZZM   9 37
M  ZZI   9 124
M  ZZM  10 37
M  ZZI  10 125
M  ZZM  11 37
M  ZZI  11 125
M  ZZM  12 37
M  ZZI  12 125
M  ZZM  13 1
M  ZZI  13 113
M  ZZM  14 3
M  ZZI  14 121
M  ZZM  15 7
M  ZZI  15 81
M  ZZM  16 10
M  ZZI  16 191
M  ZZM  17 3
M  ZZI  17 121
M  ZZM  18 7
M  ZZI  18 81
M  ZZM  19 1
M  ZZI  19 112
M  ZZM  20 1
M  ZZI  20 112
M  ZZM  21 28
M  ZZI  21 11
M  ZZM  22 28
M  ZZI  22 11
M  ZZM  23 5
M  ZZI  23 1
M  ZZM  24 5
M  ZZI  24 1
M  ZZM  25 5
M  ZZI  25 1
M  ZZM  26 5
M  ZZI  26 1
M  ZZM  27 28
M  ZZI  27 11
M  ZZM  28 5
M  ZZI  28 1
M  ZZM  29 5
M  ZZI  29 1
M  ZZM  30 5
M  ZZI  30 1
M  ZZM  31 5
M  ZZI  31 1
M  END
> <IX>
1

> <NAME>
Cereblon_4QNQ_42.pdb

> <Score>
-14.684658

> <Natom>
31

> <Nflex>
1

> <Hbond>
-2.757144

> <Hphob>
-3.655933

> <VwInt>
-26.98366

> <Dsolv>
17.21927

> <SolEl>
7.07908

> <Eintl>
5.895677

> <RecConf>
ND

> <projPath>
Cereblon_maps/

> <NAME_>
Cereblon_4QNQ_42.pdb

$$$$
