cIAP1_3CBS_4.pdb
  MOLSOFT 04032206483D

 85 88  0  0  1  0  0  0  0  0999 V2000
   15.2079   44.7480    5.7049 O   0  0  0  0  0  0  0  0  0  0  0  0
   15.5465   43.7114    6.2539 C   0  0  0  0  0  0  0  0  0  0  0  0
   16.7916   43.5678    6.8137 N   0  0  0  0  0  0  0  0  0  0  0  0
   14.6127   42.5232    6.5015 C   0  0  1  0  0  0  0  0  0  0  0  0
   13.8059   42.9025    7.6778 N   0  0  0  0  0  0  0  0  0  0  0  0
   12.6787   43.7181    7.6435 C   0  0  0  0  0  0  0  0  0  0  0  0
   12.1741   44.1554    6.6193 O   0  0  0  0  0  0  0  0  0  0  0  0
   12.1752   44.1284    9.0316 C   0  0  1  0  0  0  0  0  0  0  0  0
   12.6402   45.4865    9.2988 N   0  0  0  0  0  0  0  0  0  0  0  0
   13.9519   45.7217    9.6941 C   0  0  0  0  0  0  0  0  0  0  0  0
   14.7254   44.7886    9.8575 O   0  0  0  0  0  0  0  0  0  0  0  0
   14.4103   47.1755    9.9209 C   0  0  1  0  0  0  0  0  0  0  0  0
   15.0503   47.1670   11.2391 N   0  0  0  0  0  0  0  0  0  0  0  0
   14.9552   48.2130   12.1405 C   0  0  0  0  0  0  0  0  0  0  0  0
   14.3873   49.2694   11.9042 O   0  0  0  0  0  0  0  0  0  0  0  0
   15.6373   47.9475   13.4852 C   0  0  1  0  0  0  0  0  0  0  0  0
   16.7624   48.9279   13.7467 N   0  3  0  0  0  0  0  0  0  0  0  0
   17.5816   48.6398   14.9629 C   0  0  0  0  0  0  0  0  0  0  0  0
   14.5943   48.0388   14.5978 C   0  0  0  0  0  0  0  0  0  0  0  0
   15.4007   47.5957    8.8099 C   0  0  0  0  0  0  0  0  0  0  0  0
   14.7219   47.6115    7.4346 C   0  0  0  0  0  0  0  0  0  0  0  0
   15.6916   48.0031    6.3270 C   0  0  0  0  0  0  0  0  0  0  0  0
   16.3241   49.3585    6.5978 C   0  0  0  0  0  0  0  0  0  0  0  0
   16.9923   49.3870    7.9620 C   0  0  0  0  0  0  0  0  0  0  0  0
   16.0454   48.9641    9.0785 C   0  0  0  0  0  0  0  0  0  0  0  0
   11.5578   46.4464    9.2429 C   0  0  0  0  0  0  0  0  0  0  0  0
   10.3731   45.6726    8.6993 C   0  0  0  0  0  0  0  0  0  0  0  0
   10.6580   44.2364    9.1014 C   0  0  0  0  0  0  0  0  0  0  0  0
   13.7924   42.0899    5.2531 C   0  0  0  0  0  0  0  0  0  0  0  0
   12.9729   40.8132    5.4490 C   0  0  0  0  0  0  0  0  0  0  0  0
   13.1493   39.9283    6.5189 C   0  0  0  0  0  0  0  0  0  0  0  0
   12.3883   38.7790    6.6354 C   0  0  0  0  0  0  0  0  0  0  0  0
   11.4336   38.4760    5.6867 C   0  0  0  0  0  0  0  0  0  0  0  0
   11.2380   39.3333    4.6228 C   0  0  0  0  0  0  0  0  0  0  0  0
   11.9944   40.4863    4.5091 C   0  0  0  0  0  0  0  0  0  0  0  0
   14.6423   42.0271    3.9946 C   0  0  0  0  0  0  0  0  0  0  0  0
   15.4814   40.9528    3.7259 C   0  0  0  0  0  0  0  0  0  0  0  0
   16.1712   40.8728    2.5297 C   0  0  0  0  0  0  0  0  0  0  0  0
   16.0787   41.8895    1.5992 C   0  0  0  0  0  0  0  0  0  0  0  0
   15.2818   42.9846    1.8657 C   0  0  0  0  0  0  0  0  0  0  0  0
   14.5651   43.0478    3.0471 C   0  0  0  0  0  0  0  0  0  0  0  0
   17.4172   44.3648    6.8527 H   0  0  0  0  0  0  0  0  0  0  0  0
   17.1329   42.6873    7.1867 H   0  0  0  0  0  0  0  0  0  0  0  0
   15.2474   41.6925    6.8280 H   0  0  0  0  0  0  0  0  0  0  0  0
   14.2030   42.6901    8.5884 H   0  0  0  0  0  0  0  0  0  0  0  0
   12.5586   43.4275    9.7818 H   0  0  0  0  0  0  0  0  0  0  0  0
   13.5612   47.8635    9.9591 H   0  0  0  0  0  0  0  0  0  0  0  0
   15.5662   46.3288   11.4881 H   0  0  0  0  0  0  0  0  0  0  0  0
   16.1008   46.9585   13.4749 H   0  0  0  0  0  0  0  0  0  0  0  0
   17.4007   48.9220   12.9366 H   0  0  0  0  0  0  0  0  0  0  0  0
   16.3963   49.8892   13.7944 H   0  0  0  0  0  0  0  0  0  0  0  0
   17.8964   47.5936   14.9311 H   0  0  0  0  0  0  0  0  0  0  0  0
   16.9819   48.8513   15.8516 H   0  0  0  0  0  0  0  0  0  0  0  0
   18.4517   49.2932   14.9326 H   0  0  0  0  0  0  0  0  0  0  0  0
   14.9993   47.7120   15.5595 H   0  0  0  0  0  0  0  0  0  0  0  0
   13.7311   47.4048   14.3729 H   0  0  0  0  0  0  0  0  0  0  0  0
   14.2233   49.0614   14.7182 H   0  0  0  0  0  0  0  0  0  0  0  0
   16.2071   46.8545    8.7738 H   0  0  0  0  0  0  0  0  0  0  0  0
   14.3003   46.6312    7.2018 H   0  0  0  0  0  0  0  0  0  0  0  0
   13.8809   48.3139    7.4423 H   0  0  0  0  0  0  0  0  0  0  0  0
   16.4773   47.2443    6.2389 H   0  0  0  0  0  0  0  0  0  0  0  0
   15.1666   48.0266    5.3670 H   0  0  0  0  0  0  0  0  0  0  0  0
   17.0602   49.5861    5.8203 H   0  0  0  0  0  0  0  0  0  0  0  0
   15.5573   50.1391    6.5483 H   0  0  0  0  0  0  0  0  0  0  0  0
   17.8532   48.7144    7.9456 H   0  0  0  0  0  0  0  0  0  0  0  0
   17.3808   50.3899    8.1646 H   0  0  0  0  0  0  0  0  0  0  0  0
   15.2670   49.7260    9.1965 H   0  0  0  0  0  0  0  0  0  0  0  0
   16.6120   48.9459   10.0139 H   0  0  0  0  0  0  0  0  0  0  0  0
   11.3705   46.8057   10.2608 H   0  0  0  0  0  0  0  0  0  0  0  0
   11.8245   47.2998    8.6124 H   0  0  0  0  0  0  0  0  0  0  0  0
    9.4190   46.0416    9.0878 H   0  0  0  0  0  0  0  0  0  0  0  0
   10.3379   45.7594    7.6081 H   0  0  0  0  0  0  0  0  0  0  0  0
   10.1373   43.5125    8.4662 H   0  0  0  0  0  0  0  0  0  0  0  0
   10.3246   44.0778   10.1337 H   0  0  0  0  0  0  0  0  0  0  0  0
   13.0508   42.8664    5.0551 H   0  0  0  0  0  0  0  0  0  0  0  0
   13.8881   40.1101    7.2894 H   0  0  0  0  0  0  0  0  0  0  0  0
   12.5497   38.1030    7.4694 H   0  0  0  0  0  0  0  0  0  0  0  0
   10.8467   37.5673    5.7744 H   0  0  0  0  0  0  0  0  0  0  0  0
   10.4903   39.1000    3.8717 H   0  0  0  0  0  0  0  0  0  0  0  0
   11.8157   41.1396    3.6600 H   0  0  0  0  0  0  0  0  0  0  0  0
   15.5812   40.1514    4.4448 H   0  0  0  0  0  0  0  0  0  0  0  0
   16.7953   40.0094    2.3218 H   0  0  0  0  0  0  0  0  0  0  0  0
   16.6327   41.8294    0.6678 H   0  0  0  0  0  0  0  0  0  0  0  0
   15.2087   43.7911    1.1433 H   0  0  0  0  0  0  0  0  0  0  0  0
   13.9325   43.9128    3.2251 H   0  0  0  0  0  0  0  0  0  0  0  0
  1  2  2  0  0  0  0
  4  2  1  0  0  0  0
  2  3  1  0  0  0  0
  3 42  1  0  0  0  0
  3 43  1  0  0  0  0
  4  5  1  0  0  0  0
  4 44  1  0  0  0  0
  4 29  1  0  0  0  0
  5  6  1  0  0  0  0
  5 45  1  0  0  0  0
  8  6  1  0  0  0  0
  6  7  2  0  0  0  0
  8 28  1  0  0  0  0
  8 46  1  0  0  0  0
  8  9  1  0  0  0  0
  9 10  1  0  0  0  0
  9 26  1  0  0  0  0
 12 10  1  0  0  0  0
 10 11  2  0  0  0  0
 12 13  1  0  0  0  0
 12 47  1  0  0  0  0
 12 20  1  0  0  0  0
 13 14  1  0  0  0  0
 13 48  1  0  0  0  0
 16 14  1  0  0  0  0
 14 15  2  0  0  0  0
 16 17  1  0  0  0  0
 16 49  1  0  0  0  0
 16 19  1  0  0  0  0
 17 50  1  0  0  0  0
 17 51  1  0  0  0  0
 17 18  1  0  0  0  0
 18 52  1  0  0  0  0
 18 53  1  0  0  0  0
 18 54  1  0  0  0  0
 19 55  1  0  0  0  0
 19 56  1  0  0  0  0
 19 57  1  0  0  0  0
 20 58  1  0  0  0  0
 20 21  1  0  0  0  0
 20 25  1  0  0  0  0
 21 59  1  0  0  0  0
 21 60  1  0  0  0  0
 21 22  1  0  0  0  0
 22 61  1  0  0  0  0
 22 62  1  0  0  0  0
 22 23  1  0  0  0  0
 23 63  1  0  0  0  0
 23 64  1  0  0  0  0
 23 24  1  0  0  0  0
 24 65  1  0  0  0  0
 24 66  1  0  0  0  0
 24 25  1  0  0  0  0
 25 67  1  0  0  0  0
 25 68  1  0  0  0  0
 26 69  1  0  0  0  0
 26 70  1  0  0  0  0
 26 27  1  0  0  0  0
 27 71  1  0  0  0  0
 27 72  1  0  0  0  0
 27 28  1  0  0  0  0
 28 73  1  0  0  0  0
 28 74  1  0  0  0  0
 29 75  1  0  0  0  0
 29 36  1  0  0  0  0
 29 30  1  0  0  0  0
 30 31  1  0  0  0  0
 30 35  2  0  0  0  0
 31 76  1  0  0  0  0
 31 32  2  0  0  0  0
 32 77  1  0  0  0  0
 32 33  1  0  0  0  0
 33 78  1  0  0  0  0
 33 34  2  0  0  0  0
 34 79  1  0  0  0  0
 34 35  1  0  0  0  0
 35 80  1  0  0  0  0
 36 37  1  0  0  0  0
 36 41  2  0  0  0  0
 37 81  1  0  0  0  0
 37 38  2  0  0  0  0
 38 82  1  0  0  0  0
 38 39  1  0  0  0  0
 39 83  1  0  0  0  0
 39 40  2  0  0  0  0
 40 84  1  0  0  0  0
 40 41  1  0  0  0  0
 41 85  1  0  0  0  0
M  ZZC   1 o1
M  ZZC   2 c1
M  ZZC   3 n1
M  ZZC   4 c2
M  ZZC   5 n2
M  ZZC   6 c3
M  ZZC   7 o2
M  ZZC   8 c4
M  ZZC   9 n3
M  ZZC  10 c5
M  ZZC  11 o3
M  ZZC  12 c6
M  ZZC  13 n4
M  ZZC  14 c7
M  ZZC  15 o4
M  ZZC  16 c8
M  ZZC  17 n5
M  ZZC  18 c9
M  ZZC  19 c10
M  ZZC  20 c11
M  ZZC  21 c12
M  ZZC  22 c13
M  ZZC  23 c14
M  ZZC  24 c15
M  ZZC  25 c16
M  ZZC  26 c17
M  ZZC  27 c18
M  ZZC  28 c19
M  ZZC  29 c20
M  ZZC  30 c21
M  ZZC  31 c22
M  ZZC  32 c23
M  ZZC  33 c24
M  ZZC  34 c25
M  ZZC  35 c26
M  ZZC  36 c27
M  ZZC  37 c28
M  ZZC  38 c29
M  ZZC  39 c30
M  ZZC  40 c31
M  ZZC  41 c32
M  ZZC  42 h11
M  ZZC  43 h12
M  ZZC  44 h21
M  ZZC  45 h01
M  ZZC  46 h41
M  ZZC  47 h61
M  ZZC  48 h02
M  ZZC  49 h81
M  ZZC  50 h51
M  ZZC  51 h52
M  ZZC  52 h91
M  ZZC  53 h92
M  ZZC  54 h93
M  ZZC  55 h101
M  ZZC  56 h102
M  ZZC  57 h103
M  ZZC  58 h111
M  ZZC  59 h121
M  ZZC  60 h122
M  ZZC  61 h131
M  ZZC  62 h132
M  ZZC  63 h141
M  ZZC  64 h142
M  ZZC  65 h151
M  ZZC  66 h152
M  ZZC  67 h161
M  ZZC  68 h162
M  ZZC  69 h171
M  ZZC  70 h172
M  ZZC  71 h181
M  ZZC  72 h182
M  ZZC  73 h191
M  ZZC  74 h192
M  ZZC  75 h201
M  ZZC  76 h221
M  ZZC  77 h231
M  ZZC  78 h241
M  ZZC  79 h251
M  ZZC  80 h261
M  ZZC  81 h281
M  ZZC  82 h291
M  ZZC  83 h301
M  ZZC  84 h311
M  ZZC  85 h321
M  ZZM   1 7
M  ZZI   1 81
M  ZZM   2 3
M  ZZI   2 121
M  ZZM   3 10
M  ZZI   3 212
M  ZZM   4 1
M  ZZI   4 113
M  ZZM   5 10
M  ZZI   5 211
M  ZZM   6 3
M  ZZI   6 121
M  ZZM   7 7
M  ZZI   7 81
M  ZZM   8 1
M  ZZI   8 113
M  ZZM   9 10
M  ZZI   9 192
M  ZZM  10 3
M  ZZI  10 121
M  ZZM  11 7
M  ZZI  11 81
M  ZZM  12 1
M  ZZI  12 113
M  ZZM  13 10
M  ZZI  13 211
M  ZZM  14 3
M  ZZI  14 121
M  ZZM  15 7
M  ZZI  15 81
M  ZZM  16 1
M  ZZI  16 113
M  ZZM  17 34
M  ZZI  17 231
M  ZZM  18 1
M  ZZI  18 111
M  ZZM  19 1
M  ZZI  19 111
M  ZZM  20 1
M  ZZI  20 113
M  ZZM  21 1
M  ZZI  21 112
M  ZZM  22 1
M  ZZI  22 112
M  ZZM  23 1
M  ZZI  23 112
M  ZZM  24 1
M  ZZI  24 112
M  ZZM  25 1
M  ZZI  25 112
M  ZZM  26 1
M  ZZI  26 112
M  ZZM  27 1
M  ZZI  27 112
M  ZZM  28 1
M  ZZI  28 112
M  ZZM  29 1
M  ZZI  29 113
M  ZZM  30 37
M  ZZI  30 124
M  ZZM  31 37
M  ZZI  31 125
M  ZZM  32 37
M  ZZI  32 125
M  ZZM  33 37
M  ZZI  33 125
M  ZZM  34 37
M  ZZI  34 125
M  ZZM  35 37
M  ZZI  35 125
M  ZZM  36 37
M  ZZI  36 124
M  ZZM  37 37
M  ZZI  37 125
M  ZZM  38 37
M  ZZI  38 125
M  ZZM  39 37
M  ZZI  39 125
M  ZZM  40 37
M  ZZI  40 125
M  ZZM  41 37
M  ZZI  41 125
M  ZZM  42 28
M  ZZI  42 11
M  ZZM  43 28
M  ZZI  43 11
M  ZZM  44 5
M  ZZI  44 1
M  ZZM  45 28
M  ZZI  45 11
M  ZZM  46 5
M  ZZI  46 1
M  ZZM  47 5
M  ZZI  47 1
M  ZZM  48 28
M  ZZI  48 11
M  ZZM  49 5
M  ZZI  49 1
M  ZZM  50 36
M  ZZI  50 17
M  ZZM  51 36
M  ZZI  51 17
M  ZZM  52 5
M  ZZI  52 1
M  ZZM  53 5
M  ZZI  53 1
M  ZZM  54 5
M  ZZI  54 1
M  ZZM  55 5
M  ZZI  55 1
M  ZZM  56 5
M  ZZI  56 1
M  ZZM  57 5
M  ZZI  57 1
M  ZZM  58 5
M  ZZI  58 1
M  ZZM  59 5
M  ZZI  59 1
M  ZZM  60 5
M  ZZI  60 1
M  ZZM  61 5
M  ZZI  61 1
M  ZZM  62 5
M  ZZI  62 1
M  ZZM  63 5
M  ZZI  63 1
M  ZZM  64 5
M  ZZI  64 1
M  ZZM  65 5
M  ZZI  65 1
M  ZZM  66 5
M  ZZI  66 1
M  ZZM  67 5
M  ZZI  67 1
M  ZZM  68 5
M  ZZI  68 1
M  ZZM  69 5
M  ZZI  69 1
M  ZZM  70 5
M  ZZI  70 1
M  ZZM  71 5
M  ZZI  71 1
M  ZZM  72 5
M  ZZI  72 1
M  ZZM  73 5
M  ZZI  73 1
M  ZZM  74 5
M  ZZI  74 1
M  ZZM  75 5
M  ZZI  75 1
M  ZZM  76 5
M  ZZI  76 1
M  ZZM  77 5
M  ZZI  77 1
M  ZZM  78 5
M  ZZI  78 1
M  ZZM  79 5
M  ZZI  79 1
M  ZZM  80 5
M  ZZI  80 1
M  ZZM  81 5
M  ZZI  81 1
M  ZZM  82 5
M  ZZI  82 1
M  ZZM  83 5
M  ZZI  83 1
M  ZZM  84 5
M  ZZI  84 1
M  ZZM  85 5
M  ZZI  85 1
M  CHG  1  17   1
M  END
> <IX>
1

> <NAME>
cIAP1_3CBS_4.pdb

> <Score>
-9.168118

> <Natom>
85

> <Nflex>
12

> <Hbond>
-4.403335

> <Hphob>
-5.375707

> <VwInt>
-22.887595

> <Dsolv>
14.000407

> <SolEl>
5.285863

> <Eintl>
12.121106

> <RecConf>
ND

> <projPath>
cIAP1_maps/

> <NAME_>
cIAP1_3CBS_4.pdb

$$$$
