cIAP1_3KMR_1.pdb
  MOLSOFT 04032206433D

 48 48  0  0  1  0  0  0  0  0999 V2000
   15.1890   51.6080   20.4929 O   0  0  0  0  0  0  0  0  0  0  0  0
   16.3108   51.1457   20.3510 C   0  0  0  0  0  0  0  0  0  0  0  0
   16.6059   50.0970   19.5019 N   0  0  0  0  0  0  0  0  0  0  0  0
   15.5424   49.3774   18.7918 C   0  0  2  0  0  0  0  0  0  0  0  0
   14.9067   48.3652   19.7470 C   0  0  0  0  0  0  0  0  0  0  0  0
   13.7753   47.9333   19.5952 O   0  0  0  0  0  0  0  0  0  0  0  0
   15.7445   47.8555   20.7048 N   0  0  0  0  0  0  0  0  0  0  0  0
   16.0904   48.6253   17.5713 C   0  0  0  0  0  0  0  0  0  0  0  0
   16.0947   49.4365   16.2661 C   0  0  0  0  0  0  0  0  0  0  0  0
   14.6808   49.6421   15.7238 C   0  0  0  0  0  0  0  0  0  0  0  0
   16.9391   48.7257   15.2072 C   0  0  0  0  0  0  0  0  0  0  0  0
   17.4957   51.6392   21.1674 C   0  0  1  0  0  0  0  0  0  0  0  0
   17.2570   52.9611   21.6747 O   0  0  0  0  0  0  0  0  0  0  0  0
   17.7351   50.6701   22.3518 C   0  0  2  0  0  0  0  0  0  0  0  0
   16.4599   50.5212   23.1524 N   0  3  0  0  0  0  0  0  0  0  0  0
   18.8423   51.1381   23.3151 C   0  0  0  0  0  0  0  0  0  0  0  0
   20.2226   51.0682   22.7106 C   0  0  0  0  0  0  0  0  0  0  0  0
   20.7565   52.1430   22.0048 C   0  0  0  0  0  0  0  0  0  0  0  0
   22.0215   52.0639   21.4481 C   0  0  0  0  0  0  0  0  0  0  0  0
   22.7757   50.9145   21.5966 C   0  0  0  0  0  0  0  0  0  0  0  0
   22.2588   49.8414   22.2982 C   0  0  0  0  0  0  0  0  0  0  0  0
   20.9917   49.9188   22.8485 C   0  0  0  0  0  0  0  0  0  0  0  0
   17.5657   49.7738   19.4094 H   0  0  0  0  0  0  0  0  0  0  0  0
   14.7610   50.0933   18.5209 H   0  0  0  0  0  0  0  0  0  0  0  0
   15.3992   47.1199   21.3123 H   0  0  0  0  0  0  0  0  0  0  0  0
   16.7218   48.1202   20.7636 H   0  0  0  0  0  0  0  0  0  0  0  0
   17.1097   48.3024   17.7994 H   0  0  0  0  0  0  0  0  0  0  0  0
   15.5124   47.7088   17.4078 H   0  0  0  0  0  0  0  0  0  0  0  0
   16.5357   50.4199   16.4542 H   0  0  0  0  0  0  0  0  0  0  0  0
   14.7034   50.1983   14.7818 H   0  0  0  0  0  0  0  0  0  0  0  0
   14.0577   50.2100   16.4192 H   0  0  0  0  0  0  0  0  0  0  0  0
   14.1837   48.6853   15.5329 H   0  0  0  0  0  0  0  0  0  0  0  0
   16.9754   49.3050   14.2801 H   0  0  0  0  0  0  0  0  0  0  0  0
   16.5355   47.7365   14.9672 H   0  0  0  0  0  0  0  0  0  0  0  0
   17.9693   48.5889   15.5464 H   0  0  0  0  0  0  0  0  0  0  0  0
   18.3733   51.6827   20.5142 H   0  0  0  0  0  0  0  0  0  0  0  0
   17.0854   53.5505   20.9169 H   0  0  0  0  0  0  0  0  0  0  0  0
   17.9551   49.6630   21.9883 H   0  0  0  0  0  0  0  0  0  0  0  0
   16.1963   51.4093   23.6033 H   0  0  0  0  0  0  0  0  0  0  0  0
   16.5319   49.7996   23.8850 H   0  0  0  0  0  0  0  0  0  0  0  0
   15.6545   50.2416   22.5738 H   0  0  0  0  0  0  0  0  0  0  0  0
   18.6516   52.1551   23.6748 H   0  0  0  0  0  0  0  0  0  0  0  0
   18.8316   50.5166   24.2178 H   0  0  0  0  0  0  0  0  0  0  0  0
   20.1870   53.0597   21.8839 H   0  0  0  0  0  0  0  0  0  0  0  0
   22.4248   52.9076   20.8969 H   0  0  0  0  0  0  0  0  0  0  0  0
   23.7697   50.8550   21.1647 H   0  0  0  0  0  0  0  0  0  0  0  0
   22.8468   48.9369   22.4198 H   0  0  0  0  0  0  0  0  0  0  0  0
   20.6098   49.0696   23.4031 H   0  0  0  0  0  0  0  0  0  0  0  0
  1  2  2  0  0  0  0
  2  3  1  0  0  0  0
 12  2  1  0  0  0  0
  4  3  1  0  0  0  0
  3 23  1  0  0  0  0
  4  8  1  0  0  0  0
  4 24  1  0  0  0  0
  4  5  1  0  0  0  0
  5  6  2  0  0  0  0
  5  7  1  0  0  0  0
  7 25  1  0  0  0  0
  7 26  1  0  0  0  0
  8 27  1  0  0  0  0
  8 28  1  0  0  0  0
  8  9  1  0  0  0  0
  9 29  1  0  0  0  0
  9 11  1  0  0  0  0
  9 10  1  0  0  0  0
 10 30  1  0  0  0  0
 10 31  1  0  0  0  0
 10 32  1  0  0  0  0
 11 33  1  0  0  0  0
 11 34  1  0  0  0  0
 11 35  1  0  0  0  0
 12 36  1  0  0  0  0
 12 13  1  0  0  0  0
 12 14  1  0  0  0  0
 13 37  1  0  0  0  0
 14 38  1  0  0  0  0
 14 15  1  0  0  0  0
 14 16  1  0  0  0  0
 15 39  1  0  0  0  0
 15 40  1  0  0  0  0
 15 41  1  0  0  0  0
 16 42  1  0  0  0  0
 16 43  1  0  0  0  0
 16 17  1  0  0  0  0
 17 18  1  0  0  0  0
 17 22  2  0  0  0  0
 18 44  1  0  0  0  0
 18 19  2  0  0  0  0
 19 45  1  0  0  0  0
 19 20  1  0  0  0  0
 20 46  1  0  0  0  0
 20 21  2  0  0  0  0
 21 47  1  0  0  0  0
 21 22  1  0  0  0  0
 22 48  1  0  0  0  0
M  ZZC   1 o1
M  ZZC   2 c1
M  ZZC   3 n1
M  ZZC   4 c2
M  ZZC   5 c3
M  ZZC   6 o2
M  ZZC   7 n2
M  ZZC   8 c4
M  ZZC   9 c5
M  ZZC  10 c6
M  ZZC  11 c7
M  ZZC  12 c8
M  ZZC  13 o3
M  ZZC  14 c9
M  ZZC  15 n3
M  ZZC  16 c10
M  ZZC  17 c11
M  ZZC  18 c12
M  ZZC  19 c13
M  ZZC  20 c14
M  ZZC  21 c15
M  ZZC  22 c16
M  ZZC  23 h11
M  ZZC  24 h21
M  ZZC  25 h01
M  ZZC  26 h22
M  ZZC  27 h41
M  ZZC  28 h42
M  ZZC  29 h51
M  ZZC  30 h61
M  ZZC  31 h62
M  ZZC  32 h63
M  ZZC  33 h71
M  ZZC  34 h72
M  ZZC  35 h73
M  ZZC  36 h81
M  ZZC  37 h31
M  ZZC  38 h91
M  ZZC  39 h02
M  ZZC  40 h32
M  ZZC  41 h33
M  ZZC  42 h101
M  ZZC  43 h102
M  ZZC  44 h121
M  ZZC  45 h131
M  ZZC  46 h141
M  ZZC  47 h151
M  ZZC  48 h161
M  ZZM   1 7
M  ZZI   1 81
M  ZZM   2 3
M  ZZI   2 121
M  ZZM   3 10
M  ZZI   3 211
M  ZZM   4 1
M  ZZI   4 113
M  ZZM   5 3
M  ZZI   5 121
M  ZZM   6 7
M  ZZI   6 81
M  ZZM   7 10
M  ZZI   7 212
M  ZZM   8 1
M  ZZI   8 112
M  ZZM   9 1
M  ZZI   9 113
M  ZZM  10 1
M  ZZI  10 111
M  ZZM  11 1
M  ZZI  11 111
M  ZZM  12 1
M  ZZI  12 113
M  ZZM  13 6
M  ZZI  13 60
M  ZZM  14 1
M  ZZI  14 113
M  ZZM  15 34
M  ZZI  15 231
M  ZZM  16 1
M  ZZI  16 112
M  ZZM  17 37
M  ZZI  17 124
M  ZZM  18 37
M  ZZI  18 125
M  ZZM  19 37
M  ZZI  19 125
M  ZZM  20 37
M  ZZI  20 125
M  ZZM  21 37
M  ZZI  21 125
M  ZZM  22 37
M  ZZI  22 125
M  ZZM  23 28
M  ZZI  23 11
M  ZZM  24 5
M  ZZI  24 1
M  ZZM  25 28
M  ZZI  25 11
M  ZZM  26 28
M  ZZI  26 11
M  ZZM  27 5
M  ZZI  27 1
M  ZZM  28 5
M  ZZI  28 1
M  ZZM  29 5
M  ZZI  29 1
M  ZZM  30 5
M  ZZI  30 1
M  ZZM  31 5
M  ZZI  31 1
M  ZZM  32 5
M  ZZI  32 1
M  ZZM  33 5
M  ZZI  33 1
M  ZZM  34 5
M  ZZI  34 1
M  ZZM  35 5
M  ZZI  35 1
M  ZZM  36 5
M  ZZI  36 1
M  ZZM  37 21
M  ZZI  37 20
M  ZZM  38 5
M  ZZI  38 1
M  ZZM  39 36
M  ZZI  39 17
M  ZZM  40 36
M  ZZI  40 17
M  ZZM  41 36
M  ZZI  41 17
M  ZZM  42 5
M  ZZI  42 1
M  ZZM  43 5
M  ZZI  43 1
M  ZZM  44 5
M  ZZI  44 1
M  ZZM  45 5
M  ZZI  45 1
M  ZZM  46 5
M  ZZI  46 1
M  ZZM  47 5
M  ZZI  47 1
M  ZZM  48 5
M  ZZI  48 1
M  CHG  1  15   1
M  END
> <IX>
1

> <NAME>
cIAP1_3KMR_1.pdb

> <Score>
-8.489678

> <Natom>
48

> <Nflex>
9

> <Hbond>
-3.584451

> <Hphob>
-3.711206

> <VwInt>
-20.528085

> <Dsolv>
12.261387

> <SolEl>
6.565818

> <Eintl>
7.773495

> <RecConf>
ND

> <projPath>
cIAP1_maps/

> <NAME_>
cIAP1_3KMR_1.pdb

$$$$
