cIAP1_4QNQ_64.pdb
  MOLSOFT 04032206463D

 71 74  0  0  1  0  0  0  0  0999 V2000
   26.3735   25.6131    5.0159 O   0  0  0  0  0  0  0  0  0  0  0  0
   26.6582   25.2674    6.3237 C   0  0  0  0  0  0  0  0  0  0  0  0
   27.3589   26.1667    7.1031 C   0  0  0  0  0  0  0  0  0  0  0  0
   27.6717   25.8601    8.4263 C   0  0  0  0  0  0  0  0  0  0  0  0
   27.2816   24.6177    8.9475 C   0  0  0  0  0  0  0  0  0  0  0  0
   27.5676   24.2305   10.3810 C   0  0  2  0  0  0  0  0  0  0  0  0
   26.3379   24.2692   11.1545 N   0  0  0  0  0  0  0  0  0  0  0  0
   26.1490   23.4561   12.2597 C   0  0  0  0  0  0  0  0  0  0  0  0
   26.9967   22.6734   12.6667 O   0  0  0  0  0  0  0  0  0  0  0  0
   24.7523   23.5764   12.8830 C   0  0  1  0  0  0  0  0  0  0  0  0
   23.7311   22.5762   12.3306 C   0  0  0  0  0  0  0  0  0  0  0  0
   22.3077   23.1245   12.5274 C   0  0  0  0  0  0  0  0  0  0  0  0
   23.9529   22.2363   10.8528 C   0  0  0  0  0  0  0  0  0  0  0  0
   23.9516   21.3688   13.2394 C   0  0  0  0  0  0  0  0  0  0  0  0
   24.2413   21.9778   14.6044 C   0  0  1  0  0  0  0  0  0  0  0  0
   25.1936   21.1457   15.2707 O   0  0  0  0  0  0  0  0  0  0  0  0
   25.2225   21.3299   16.6887 C   0  0  0  0  0  0  0  0  0  0  0  0
   25.9069   22.6328   17.0685 C   0  0  0  0  0  0  0  0  0  0  0  0
   25.0722   23.8653   16.7017 C   0  0  1  0  0  0  0  0  0  0  0  0
   25.4094   25.0295   17.5217 N   0  0  0  0  0  0  0  0  0  0  0  0
   26.7074   25.4997   17.6670 C   0  0  0  0  0  0  0  0  0  0  0  0
   27.6942   24.9774   17.1680 O   0  0  0  0  0  0  0  0  0  0  0  0
   26.8384   26.7585   18.5209 C   0  0  2  0  0  0  0  0  0  0  0  0
   28.1779   27.4417   18.3173 N   0  3  0  0  0  0  0  0  0  0  0  0
   28.2682   28.2654   17.0738 C   0  0  0  0  0  0  0  0  0  0  0  0
   26.7010   26.3922   19.9950 C   0  0  0  0  0  0  0  0  0  0  0  0
   25.1669   24.2556   15.2234 C   0  0  0  0  0  0  0  0  0  0  0  0
   25.5103   25.3757   14.8668 O   0  0  0  0  0  0  0  0  0  0  0  0
   24.8079   23.2777   14.3072 N   0  0  0  0  0  0  0  0  0  0  0  0
   28.6400   25.1127   11.0245 C   0  0  0  0  0  0  0  0  0  0  0  0
   28.3766   26.5802   10.7432 C   0  0  0  0  0  0  0  0  0  0  0  0
   28.4560   26.8513    9.2506 C   0  0  0  0  0  0  0  0  0  0  0  0
   26.5732   23.7290    8.1374 C   0  0  0  0  0  0  0  0  0  0  0  0
   26.2580   24.0463    6.8300 C   0  0  0  0  0  0  0  0  0  0  0  0
   25.9552   24.8462    4.5871 H   0  0  0  0  0  0  0  0  0  0  0  0
   27.6632   27.1128    6.6671 H   0  0  0  0  0  0  0  0  0  0  0  0
   27.9383   23.1988   10.3963 H   0  0  0  0  0  0  0  0  0  0  0  0
   25.6262   24.9364   10.8671 H   0  0  0  0  0  0  0  0  0  0  0  0
   24.4012   24.5984   12.7434 H   0  0  0  0  0  0  0  0  0  0  0  0
   21.5546   22.3541   12.3611 H   0  0  0  0  0  0  0  0  0  0  0  0
   22.1016   23.9350   11.8284 H   0  0  0  0  0  0  0  0  0  0  0  0
   22.1392   23.5168   13.5343 H   0  0  0  0  0  0  0  0  0  0  0  0
   23.1957   21.5466   10.4944 H   0  0  0  0  0  0  0  0  0  0  0  0
   24.9195   21.7574   10.6725 H   0  0  0  0  0  0  0  0  0  0  0  0
   23.8931   23.1303   10.2253 H   0  0  0  0  0  0  0  0  0  0  0  0
   23.0932   20.6895   13.2771 H   0  0  0  0  0  0  0  0  0  0  0  0
   24.8032   20.7679   12.8978 H   0  0  0  0  0  0  0  0  0  0  0  0
   23.3250   22.0956   15.1961 H   0  0  0  0  0  0  0  0  0  0  0  0
   24.2120   21.2556   17.1059 H   0  0  0  0  0  0  0  0  0  0  0  0
   25.7987   20.4962   17.1005 H   0  0  0  0  0  0  0  0  0  0  0  0
   26.0871   22.6200   18.1489 H   0  0  0  0  0  0  0  0  0  0  0  0
   26.8818   22.6754   16.5712 H   0  0  0  0  0  0  0  0  0  0  0  0
   24.0172   23.6686   16.9170 H   0  0  0  0  0  0  0  0  0  0  0  0
   24.6291   25.5273   17.9417 H   0  0  0  0  0  0  0  0  0  0  0  0
   26.0724   27.4815   18.2316 H   0  0  0  0  0  0  0  0  0  0  0  0
   28.4094   28.0347   19.1246 H   0  0  0  0  0  0  0  0  0  0  0  0
   28.9100   26.7161   18.2816 H   0  0  0  0  0  0  0  0  0  0  0  0
   29.2898   28.6483   17.0092 H   0  0  0  0  0  0  0  0  0  0  0  0
   27.5559   29.0906   17.1605 H   0  0  0  0  0  0  0  0  0  0  0  0
   28.0396   27.6336   16.2107 H   0  0  0  0  0  0  0  0  0  0  0  0
   26.7730   27.2787   20.6317 H   0  0  0  0  0  0  0  0  0  0  0  0
   27.4798   25.6884   20.3049 H   0  0  0  0  0  0  0  0  0  0  0  0
   25.7368   25.9168   20.1935 H   0  0  0  0  0  0  0  0  0  0  0  0
   28.6841   24.9481   12.1063 H   0  0  0  0  0  0  0  0  0  0  0  0
   29.6262   24.8469   10.6264 H   0  0  0  0  0  0  0  0  0  0  0  0
   27.3925   26.8707   11.1276 H   0  0  0  0  0  0  0  0  0  0  0  0
   29.1108   27.1970   11.2664 H   0  0  0  0  0  0  0  0  0  0  0  0
   29.5023   26.8262    8.9257 H   0  0  0  0  0  0  0  0  0  0  0  0
   28.0859   27.8634    9.0795 H   0  0  0  0  0  0  0  0  0  0  0  0
   26.2548   22.7683    8.5319 H   0  0  0  0  0  0  0  0  0  0  0  0
   25.7092   23.3378    6.2189 H   0  0  0  0  0  0  0  0  0  0  0  0
  1 35  1  0  0  0  0
  1  2  1  0  0  0  0
  2  3  1  0  0  0  0
  2 34  2  0  0  0  0
  3 36  1  0  0  0  0
  3  4  2  0  0  0  0
  4 32  1  0  0  0  0
  4  5  1  0  0  0  0
  6  5  1  0  0  0  0
  5 33  2  0  0  0  0
  6 30  1  0  0  0  0
  6 37  1  0  0  0  0
  6  7  1  0  0  0  0
  7 38  1  0  0  0  0
  7  8  1  0  0  0  0
  8  9  2  0  0  0  0
 10  8  1  0  0  0  0
 10 39  1  0  0  0  0
 10 11  1  0  0  0  0
 10 29  1  0  0  0  0
 11 13  1  0  0  0  0
 11 12  1  0  0  0  0
 11 14  1  0  0  0  0
 12 40  1  0  0  0  0
 12 41  1  0  0  0  0
 12 42  1  0  0  0  0
 13 43  1  0  0  0  0
 13 44  1  0  0  0  0
 13 45  1  0  0  0  0
 14 46  1  0  0  0  0
 14 47  1  0  0  0  0
 15 14  1  0  0  0  0
 15 48  1  0  0  0  0
 15 29  1  0  0  0  0
 15 16  1  0  0  0  0
 16 17  1  0  0  0  0
 17 18  1  0  0  0  0
 17 49  1  0  0  0  0
 17 50  1  0  0  0  0
 19 18  1  0  0  0  0
 18 51  1  0  0  0  0
 18 52  1  0  0  0  0
 19 27  1  0  0  0  0
 19 53  1  0  0  0  0
 19 20  1  0  0  0  0
 20 54  1  0  0  0  0
 20 21  1  0  0  0  0
 21 22  2  0  0  0  0
 23 21  1  0  0  0  0
 23 55  1  0  0  0  0
 23 26  1  0  0  0  0
 23 24  1  0  0  0  0
 24 56  1  0  0  0  0
 24 57  1  0  0  0  0
 24 25  1  0  0  0  0
 25 58  1  0  0  0  0
 25 59  1  0  0  0  0
 25 60  1  0  0  0  0
 26 61  1  0  0  0  0
 26 62  1  0  0  0  0
 26 63  1  0  0  0  0
 27 29  1  0  0  0  0
 27 28  2  0  0  0  0
 30 31  1  0  0  0  0
 30 64  1  0  0  0  0
 30 65  1  0  0  0  0
 31 32  1  0  0  0  0
 31 66  1  0  0  0  0
 31 67  1  0  0  0  0
 32 68  1  0  0  0  0
 32 69  1  0  0  0  0
 33 70  1  0  0  0  0
 33 34  1  0  0  0  0
 34 71  1  0  0  0  0
M  ZZC   1 o1
M  ZZC   2 c1
M  ZZC   3 c2
M  ZZC   4 c3
M  ZZC   5 c4
M  ZZC   6 c5
M  ZZC   7 n1
M  ZZC   8 c6
M  ZZC   9 o2
M  ZZC  10 c7
M  ZZC  11 c8
M  ZZC  12 c9
M  ZZC  13 c10
M  ZZC  14 c11
M  ZZC  15 c12
M  ZZC  16 o3
M  ZZC  17 c13
M  ZZC  18 c14
M  ZZC  19 c15
M  ZZC  20 n2
M  ZZC  21 c16
M  ZZC  22 o4
M  ZZC  23 c17
M  ZZC  24 n3
M  ZZC  25 c18
M  ZZC  26 c19
M  ZZC  27 c20
M  ZZC  28 o5
M  ZZC  29 n4
M  ZZC  30 c21
M  ZZC  31 c22
M  ZZC  32 c23
M  ZZC  33 c24
M  ZZC  34 c25
M  ZZC  35 h11
M  ZZC  36 h21
M  ZZC  37 h51
M  ZZC  38 h01
M  ZZC  39 h71
M  ZZC  40 h91
M  ZZC  41 h92
M  ZZC  42 h93
M  ZZC  43 h101
M  ZZC  44 h102
M  ZZC  45 h103
M  ZZC  46 h111
M  ZZC  47 h112
M  ZZC  48 h121
M  ZZC  49 h131
M  ZZC  50 h132
M  ZZC  51 h141
M  ZZC  52 h142
M  ZZC  53 h151
M  ZZC  54 h02
M  ZZC  55 h171
M  ZZC  56 h31
M  ZZC  57 h32
M  ZZC  58 h181
M  ZZC  59 h182
M  ZZC  60 h183
M  ZZC  61 h191
M  ZZC  62 h192
M  ZZC  63 h193
M  ZZC  64 h211
M  ZZC  65 h212
M  ZZC  66 h221
M  ZZC  67 h222
M  ZZC  68 h231
M  ZZC  69 h232
M  ZZC  70 h241
M  ZZC  71 h251
M  ZZM   1 6
M  ZZI   1 62
M  ZZM   2 37
M  ZZI   2 124
M  ZZM   3 37
M  ZZI   3 125
M  ZZM   4 37
M  ZZI   4 124
M  ZZM   5 37
M  ZZI   5 124
M  ZZM   6 1
M  ZZI   6 113
M  ZZM   7 10
M  ZZI   7 211
M  ZZM   8 3
M  ZZI   8 121
M  ZZM   9 7
M  ZZI   9 81
M  ZZM  10 1
M  ZZI  10 113
M  ZZM  11 1
M  ZZI  11 110
M  ZZM  12 1
M  ZZI  12 111
M  ZZM  13 1
M  ZZI  13 111
M  ZZM  14 1
M  ZZI  14 112
M  ZZM  15 1
M  ZZI  15 113
M  ZZM  16 6
M  ZZI  16 65
M  ZZM  17 1
M  ZZI  17 112
M  ZZM  18 1
M  ZZI  18 112
M  ZZM  19 1
M  ZZI  19 113
M  ZZM  20 10
M  ZZI  20 211
M  ZZM  21 3
M  ZZI  21 121
M  ZZM  22 7
M  ZZI  22 81
M  ZZM  23 1
M  ZZI  23 113
M  ZZM  24 34
M  ZZI  24 231
M  ZZM  25 1
M  ZZI  25 111
M  ZZM  26 1
M  ZZI  26 111
M  ZZM  27 3
M  ZZI  27 121
M  ZZM  28 7
M  ZZI  28 81
M  ZZM  29 10
M  ZZI  29 192
M  ZZM  30 1
M  ZZI  30 112
M  ZZM  31 1
M  ZZI  31 112
M  ZZM  32 1
M  ZZI  32 112
M  ZZM  33 37
M  ZZI  33 125
M  ZZM  34 37
M  ZZI  34 125
M  ZZM  35 29
M  ZZI  35 27
M  ZZM  36 5
M  ZZI  36 1
M  ZZM  37 5
M  ZZI  37 1
M  ZZM  38 28
M  ZZI  38 11
M  ZZM  39 5
M  ZZI  39 1
M  ZZM  40 5
M  ZZI  40 1
M  ZZM  41 5
M  ZZI  41 1
M  ZZM  42 5
M  ZZI  42 1
M  ZZM  43 5
M  ZZI  43 1
M  ZZM  44 5
M  ZZI  44 1
M  ZZM  45 5
M  ZZI  45 1
M  ZZM  46 5
M  ZZI  46 1
M  ZZM  47 5
M  ZZI  47 1
M  ZZM  48 5
M  ZZI  48 1
M  ZZM  49 5
M  ZZI  49 1
M  ZZM  50 5
M  ZZI  50 1
M  ZZM  51 5
M  ZZI  51 1
M  ZZM  52 5
M  ZZI  52 1
M  ZZM  53 5
M  ZZI  53 1
M  ZZM  54 28
M  ZZI  54 11
M  ZZM  55 5
M  ZZI  55 1
M  ZZM  56 36
M  ZZI  56 17
M  ZZM  57 36
M  ZZI  57 17
M  ZZM  58 5
M  ZZI  58 1
M  ZZM  59 5
M  ZZI  59 1
M  ZZM  60 5
M  ZZI  60 1
M  ZZM  61 5
M  ZZI  61 1
M  ZZM  62 5
M  ZZI  62 1
M  ZZM  63 5
M  ZZI  63 1
M  ZZM  64 5
M  ZZI  64 1
M  ZZM  65 5
M  ZZI  65 1
M  ZZM  66 5
M  ZZI  66 1
M  ZZM  67 5
M  ZZI  67 1
M  ZZM  68 5
M  ZZI  68 1
M  ZZM  69 5
M  ZZI  69 1
M  ZZM  70 5
M  ZZI  70 1
M  ZZM  71 5
M  ZZI  71 1
M  CHG  1  24   1
M  END
> <IX>
1

> <NAME>
cIAP1_4QNQ_64.pdb

> <Score>
-8.26981

> <Natom>
71

> <Nflex>
5

> <Hbond>
-1.649117

> <Hphob>
-6.017082

> <VwInt>
-22.223177

> <Dsolv>
10.525274

> <SolEl>
14.181333

> <Eintl>
3.172403

> <RecConf>
ND

> <projPath>
cIAP1_maps/

> <NAME_>
cIAP1_4QNQ_64.pdb

$$$$
