cIAP1_3CBS_3.pdb
  MOLSOFT 04032206423D

 44 44  0  0  1  0  0  0  0  0999 V2000
   14.3129   43.3135    9.9294 O   0  0  0  0  0  0  0  0  0  0  0  0
   14.0437   43.3145    8.7400 C   0  0  0  0  0  0  0  0  0  0  0  0
   13.1063   42.4658    8.2091 N   0  0  0  0  0  0  0  0  0  0  0  0
   14.7566   44.2006    7.7202 C   0  0  1  0  0  0  0  0  0  0  0  0
   15.2664   45.4118    8.3670 N   0  0  0  0  0  0  0  0  0  0  0  0
   14.4534   46.4807    8.6801 C   0  0  0  0  0  0  0  0  0  0  0  0
   13.2537   46.5188    8.4510 O   0  0  0  0  0  0  0  0  0  0  0  0
   15.1727   47.6115    9.3840 C   0  0  0  0  0  0  0  0  0  0  0  0
   15.1120   47.4173   10.8970 C   0  0  0  0  0  0  0  0  0  0  0  0
   15.5124   48.6817   11.6563 C   0  0  0  0  0  0  0  0  0  0  0  0
   15.4204   48.5190   13.1552 C   0  0  0  0  0  0  0  0  0  0  0  0
   16.5577   48.6254   13.9478 C   0  0  0  0  0  0  0  0  0  0  0  0
   16.4881   48.4911   15.3218 C   0  0  0  0  0  0  0  0  0  0  0  0
   15.2700   48.2596   15.9322 C   0  0  0  0  0  0  0  0  0  0  0  0
   14.1258   48.1645   15.1613 C   0  0  0  0  0  0  0  0  0  0  0  0
   14.1987   48.2948   13.7847 C   0  0  0  0  0  0  0  0  0  0  0  0
   15.8998   43.3907    7.0906 C   0  0  0  0  0  0  0  0  0  0  0  0
   16.2558   43.7715    5.6481 C   0  0  0  0  0  0  0  0  0  0  0  0
   16.3933   45.2793    5.4292 C   0  0  0  0  0  0  0  0  0  0  0  0
   15.2582   43.1749    4.6575 C   0  0  0  0  0  0  0  0  0  0  0  0
   12.6045   41.8379    8.8264 H   0  0  0  0  0  0  0  0  0  0  0  0
   12.8810   42.4327    7.2212 H   0  0  0  0  0  0  0  0  0  0  0  0
   14.0133   44.4986    6.9729 H   0  0  0  0  0  0  0  0  0  0  0  0
   16.2593   45.4683    8.5702 H   0  0  0  0  0  0  0  0  0  0  0  0
   16.2122   47.6670    9.0433 H   0  0  0  0  0  0  0  0  0  0  0  0
   14.6883   48.5474    9.0874 H   0  0  0  0  0  0  0  0  0  0  0  0
   14.1000   47.1121   11.1805 H   0  0  0  0  0  0  0  0  0  0  0  0
   15.7686   46.5926   11.1858 H   0  0  0  0  0  0  0  0  0  0  0  0
   16.5331   48.9614   11.3746 H   0  0  0  0  0  0  0  0  0  0  0  0
   14.8744   49.5213   11.3598 H   0  0  0  0  0  0  0  0  0  0  0  0
   17.5197   48.8272   13.4936 H   0  0  0  0  0  0  0  0  0  0  0  0
   17.3918   48.5768   15.9176 H   0  0  0  0  0  0  0  0  0  0  0  0
   15.2112   48.1604   17.0114 H   0  0  0  0  0  0  0  0  0  0  0  0
   13.1661   47.9910   15.6374 H   0  0  0  0  0  0  0  0  0  0  0  0
   13.2867   48.2231   13.2002 H   0  0  0  0  0  0  0  0  0  0  0  0
   16.7992   43.4972    7.7072 H   0  0  0  0  0  0  0  0  0  0  0  0
   15.6665   42.3212    7.1180 H   0  0  0  0  0  0  0  0  0  0  0  0
   17.2253   43.3126    5.4424 H   0  0  0  0  0  0  0  0  0  0  0  0
   15.4383   45.8014    5.5345 H   0  0  0  0  0  0  0  0  0  0  0  0
   16.7618   45.4932    4.4218 H   0  0  0  0  0  0  0  0  0  0  0  0
   17.1038   45.7178    6.1358 H   0  0  0  0  0  0  0  0  0  0  0  0
   15.5526   43.3947    3.6271 H   0  0  0  0  0  0  0  0  0  0  0  0
   14.2494   43.5705    4.8064 H   0  0  0  0  0  0  0  0  0  0  0  0
   15.2117   42.0859    4.7576 H   0  0  0  0  0  0  0  0  0  0  0  0
  1  2  2  0  0  0  0
  4  2  1  0  0  0  0
  2  3  1  0  0  0  0
  3 21  1  0  0  0  0
  3 22  1  0  0  0  0
  4  5  1  0  0  0  0
  4 23  1  0  0  0  0
  4 17  1  0  0  0  0
  5  6  1  0  0  0  0
  5 24  1  0  0  0  0
  6  8  1  0  0  0  0
  6  7  2  0  0  0  0
  8 25  1  0  0  0  0
  8 26  1  0  0  0  0
  8  9  1  0  0  0  0
  9 27  1  0  0  0  0
  9 28  1  0  0  0  0
  9 10  1  0  0  0  0
 10 29  1  0  0  0  0
 10 30  1  0  0  0  0
 10 11  1  0  0  0  0
 11 16  2  0  0  0  0
 11 12  1  0  0  0  0
 12 13  2  0  0  0  0
 12 31  1  0  0  0  0
 13 14  1  0  0  0  0
 13 32  1  0  0  0  0
 14 15  2  0  0  0  0
 14 33  1  0  0  0  0
 15 16  1  0  0  0  0
 15 34  1  0  0  0  0
 16 35  1  0  0  0  0
 17 36  1  0  0  0  0
 17 37  1  0  0  0  0
 17 18  1  0  0  0  0
 18 38  1  0  0  0  0
 18 20  1  0  0  0  0
 18 19  1  0  0  0  0
 19 39  1  0  0  0  0
 19 40  1  0  0  0  0
 19 41  1  0  0  0  0
 20 42  1  0  0  0  0
 20 43  1  0  0  0  0
 20 44  1  0  0  0  0
M  ZZC   1 o1
M  ZZC   2 c1
M  ZZC   3 n1
M  ZZC   4 c2
M  ZZC   5 n2
M  ZZC   6 c3
M  ZZC   7 o2
M  ZZC   8 c4
M  ZZC   9 c5
M  ZZC  10 c6
M  ZZC  11 c7
M  ZZC  12 c8
M  ZZC  13 c9
M  ZZC  14 c10
M  ZZC  15 c11
M  ZZC  16 c12
M  ZZC  17 c13
M  ZZC  18 c14
M  ZZC  19 c15
M  ZZC  20 c16
M  ZZC  21 h11
M  ZZC  22 h12
M  ZZC  23 h21
M  ZZC  24 h01
M  ZZC  25 h41
M  ZZC  26 h42
M  ZZC  27 h51
M  ZZC  28 h52
M  ZZC  29 h61
M  ZZC  30 h62
M  ZZC  31 h81
M  ZZC  32 h91
M  ZZC  33 h101
M  ZZC  34 h111
M  ZZC  35 h121
M  ZZC  36 h131
M  ZZC  37 h132
M  ZZC  38 h141
M  ZZC  39 h151
M  ZZC  40 h152
M  ZZC  41 h153
M  ZZC  42 h161
M  ZZC  43 h162
M  ZZC  44 h163
M  ZZM   1 7
M  ZZI   1 81
M  ZZM   2 3
M  ZZI   2 121
M  ZZM   3 10
M  ZZI   3 212
M  ZZM   4 1
M  ZZI   4 113
M  ZZM   5 10
M  ZZI   5 211
M  ZZM   6 3
M  ZZI   6 121
M  ZZM   7 7
M  ZZI   7 81
M  ZZM   8 1
M  ZZI   8 112
M  ZZM   9 1
M  ZZI   9 112
M  ZZM  10 1
M  ZZI  10 112
M  ZZM  11 37
M  ZZI  11 124
M  ZZM  12 37
M  ZZI  12 125
M  ZZM  13 37
M  ZZI  13 125
M  ZZM  14 37
M  ZZI  14 125
M  ZZM  15 37
M  ZZI  15 125
M  ZZM  16 37
M  ZZI  16 125
M  ZZM  17 1
M  ZZI  17 112
M  ZZM  18 1
M  ZZI  18 113
M  ZZM  19 1
M  ZZI  19 111
M  ZZM  20 1
M  ZZI  20 111
M  ZZM  21 28
M  ZZI  21 11
M  ZZM  22 28
M  ZZI  22 11
M  ZZM  23 5
M  ZZI  23 1
M  ZZM  24 28
M  ZZI  24 11
M  ZZM  25 5
M  ZZI  25 1
M  ZZM  26 5
M  ZZI  26 1
M  ZZM  27 5
M  ZZI  27 1
M  ZZM  28 5
M  ZZI  28 1
M  ZZM  29 5
M  ZZI  29 1
M  ZZM  30 5
M  ZZI  30 1
M  ZZM  31 5
M  ZZI  31 1
M  ZZM  32 5
M  ZZI  32 1
M  ZZM  33 5
M  ZZI  33 1
M  ZZM  34 5
M  ZZI  34 1
M  ZZM  35 5
M  ZZI  35 1
M  ZZM  36 5
M  ZZI  36 1
M  ZZM  37 5
M  ZZI  37 1
M  ZZM  38 5
M  ZZI  38 1
M  ZZM  39 5
M  ZZI  39 1
M  ZZM  40 5
M  ZZI  40 1
M  ZZM  41 5
M  ZZI  41 1
M  ZZM  42 5
M  ZZI  42 1
M  ZZM  43 5
M  ZZI  43 1
M  ZZM  44 5
M  ZZI  44 1
M  END
> <IX>
1

> <NAME>
cIAP1_3CBS_3.pdb

> <Score>
-7.69037

> <Natom>
44

> <Nflex>
8

> <Hbond>
-2.918477

> <Hphob>
-3.910232

> <VwInt>
-18.02319

> <Dsolv>
10.881457

> <SolEl>
5.937747

> <Eintl>
5.760695

> <RecConf>
ND

> <projPath>
cIAP1_maps/

> <NAME_>
cIAP1_3CBS_3.pdb

$$$$
