IAPBIR2_4QNQ_58.pdb
  MOLSOFT 04032206373D

 70 73  0  0  1  0  0  0  0  0999 V2000
   28.2012   28.0617    7.3610 O   0  0  0  0  0  0  0  0  0  0  0  0
   27.4416   27.2480    6.5448 C   0  0  0  0  0  0  0  0  0  0  0  0
   27.1501   25.9724    6.9920 C   0  0  0  0  0  0  0  0  0  0  0  0
   26.3623   25.1327    6.2035 C   0  0  0  0  0  0  0  0  0  0  0  0
   25.9644   23.7423    6.5983 C   0  0  0  0  0  0  0  0  0  0  0  0
   25.6956   22.9564    5.6967 O   0  0  0  0  0  0  0  0  0  0  0  0
   25.8576   23.3459    7.9980 C   0  0  0  0  0  0  0  0  0  0  0  0
   26.2667   24.1488    9.0392 N   0  0  0  0  0  0  0  0  0  0  0  0
   26.0582   23.5735   10.2058 C   0  0  0  0  0  0  0  0  0  0  0  0
   26.4895   24.2057   11.4998 C   0  0  1  0  0  0  0  0  0  0  0  0
   26.1668   23.4177   12.6847 N   0  0  0  0  0  0  0  0  0  0  0  0
   24.8987   23.4635   13.2679 C   0  0  0  0  0  0  0  0  0  0  0  0
   23.9771   24.0637   12.7369 O   0  0  0  0  0  0  0  0  0  0  0  0
   24.7028   22.7775   14.6249 C   0  0  2  0  0  0  0  0  0  0  0  0
   23.2752   22.5225   14.8227 N   0  0  0  0  0  0  0  0  0  0  0  0
   22.7117   21.2735   14.6445 C   0  0  0  0  0  0  0  0  0  0  0  0
   23.3318   20.3183   14.1988 O   0  0  0  0  0  0  0  0  0  0  0  0
   21.2342   21.1721   15.0370 C   0  0  1  0  0  0  0  0  0  0  0  0
   20.6717   19.8029   14.6987 N   0  3  0  0  0  0  0  0  0  0  0  0
   19.2547   19.5379   15.0891 C   0  0  0  0  0  0  0  0  0  0  0  0
   21.0573   21.4418   16.5327 C   0  0  0  0  0  0  0  0  0  0  0  0
   25.2882   23.5922   15.8018 C   0  0  0  0  0  0  0  0  0  0  0  0
   24.6330   24.9637   16.0100 C   0  0  0  0  0  0  0  0  0  0  0  0
   25.2811   25.7040   17.1712 C   0  0  0  0  0  0  0  0  0  0  0  0
   25.2901   24.8954   18.4569 C   0  0  0  0  0  0  0  0  0  0  0  0
   25.8968   23.5180   18.2558 C   0  0  0  0  0  0  0  0  0  0  0  0
   25.2329   22.7797   17.1021 C   0  0  0  0  0  0  0  0  0  0  0  0
   27.3427   22.7250   13.1850 C   0  0  0  0  0  0  0  0  0  0  0  0
   28.4293   23.0022   12.1651 C   0  0  0  0  0  0  0  0  0  0  0  0
   28.0047   24.3301   11.5709 C   0  0  0  0  0  0  0  0  0  0  0  0
   25.3010   22.0295   10.1106 S   0  0  0  0  0  0  0  0  0  0  0  0
   25.3206   22.1385    8.4058 C   0  0  0  0  0  0  0  0  0  0  0  0
   25.9239   25.5943    4.9612 C   0  0  0  0  0  0  0  0  0  0  0  0
   26.2357   26.8730    4.5254 C   0  0  0  0  0  0  0  0  0  0  0  0
   26.9899   27.7139    5.3221 C   0  0  0  0  0  0  0  0  0  0  0  0
   28.1099   28.9755    7.0343 H   0  0  0  0  0  0  0  0  0  0  0  0
   27.5484   25.6642    7.9507 H   0  0  0  0  0  0  0  0  0  0  0  0
   26.0261   25.1922   11.5774 H   0  0  0  0  0  0  0  0  0  0  0  0
   25.2066   21.8073   14.5748 H   0  0  0  0  0  0  0  0  0  0  0  0
   22.6769   23.3263   14.9848 H   0  0  0  0  0  0  0  0  0  0  0  0
   20.6730   21.8981   14.4415 H   0  0  0  0  0  0  0  0  0  0  0  0
   20.7369   19.6754   13.6790 H   0  0  0  0  0  0  0  0  0  0  0  0
   21.2792   19.0716   15.0928 H   0  0  0  0  0  0  0  0  0  0  0  0
   19.2022   19.4470   16.1764 H   0  0  0  0  0  0  0  0  0  0  0  0
   18.9618   18.5981   14.6152 H   0  0  0  0  0  0  0  0  0  0  0  0
   18.6344   20.3595   14.7277 H   0  0  0  0  0  0  0  0  0  0  0  0
   21.4804   20.6328   17.1356 H   0  0  0  0  0  0  0  0  0  0  0  0
   20.0001   21.5470   16.7947 H   0  0  0  0  0  0  0  0  0  0  0  0
   21.5583   22.3615   16.8433 H   0  0  0  0  0  0  0  0  0  0  0  0
   26.3415   23.7903   15.5929 H   0  0  0  0  0  0  0  0  0  0  0  0
   24.7190   25.5771   15.1098 H   0  0  0  0  0  0  0  0  0  0  0  0
   23.5633   24.8624   16.2091 H   0  0  0  0  0  0  0  0  0  0  0  0
   26.3049   25.9854   16.9039 H   0  0  0  0  0  0  0  0  0  0  0  0
   24.7378   26.6254   17.3558 H   0  0  0  0  0  0  0  0  0  0  0  0
   25.8437   25.4368   19.2287 H   0  0  0  0  0  0  0  0  0  0  0  0
   24.2662   24.7897   18.8270 H   0  0  0  0  0  0  0  0  0  0  0  0
   26.9698   23.6169   18.0592 H   0  0  0  0  0  0  0  0  0  0  0  0
   25.7968   22.9351   19.1767 H   0  0  0  0  0  0  0  0  0  0  0  0
   24.1938   22.5604   17.3721 H   0  0  0  0  0  0  0  0  0  0  0  0
   25.7309   21.8142   16.9647 H   0  0  0  0  0  0  0  0  0  0  0  0
   27.6222   23.1427   14.1542 H   0  0  0  0  0  0  0  0  0  0  0  0
   27.1386   21.6567   13.3081 H   0  0  0  0  0  0  0  0  0  0  0  0
   29.4270   23.0350   12.6136 H   0  0  0  0  0  0  0  0  0  0  0  0
   28.4358   22.2242   11.3936 H   0  0  0  0  0  0  0  0  0  0  0  0
   28.4865   24.5359   10.6091 H   0  0  0  0  0  0  0  0  0  0  0  0
   28.2781   25.1356   12.2625 H   0  0  0  0  0  0  0  0  0  0  0  0
   24.9275   21.3347    7.7999 H   0  0  0  0  0  0  0  0  0  0  0  0
   25.3072   24.9689    4.3224 H   0  0  0  0  0  0  0  0  0  0  0  0
   25.8657   27.2248    3.5676 H   0  0  0  0  0  0  0  0  0  0  0  0
   27.2157   28.7208    4.9874 H   0  0  0  0  0  0  0  0  0  0  0  0
  1 36  1  0  0  0  0
  1  2  1  0  0  0  0
  2  3  2  0  0  0  0
  2 35  1  0  0  0  0
  3 37  1  0  0  0  0
  3  4  1  0  0  0  0
  4 33  2  0  0  0  0
  4  5  1  0  0  0  0
  5  6  2  0  0  0  0
  5  7  1  0  0  0  0
  7 32  2  0  0  0  0
  7  8  1  0  0  0  0
  8  9  2  0  0  0  0
  9 31  1  0  0  0  0
 10  9  1  0  0  0  0
 10 38  1  0  0  0  0
 10 30  1  0  0  0  0
 10 11  1  0  0  0  0
 11 28  1  0  0  0  0
 11 12  1  0  0  0  0
 12 13  2  0  0  0  0
 14 12  1  0  0  0  0
 14 39  1  0  0  0  0
 14 15  1  0  0  0  0
 14 22  1  0  0  0  0
 15 40  1  0  0  0  0
 15 16  1  0  0  0  0
 16 17  2  0  0  0  0
 18 16  1  0  0  0  0
 18 41  1  0  0  0  0
 18 21  1  0  0  0  0
 18 19  1  0  0  0  0
 19 42  1  0  0  0  0
 19 43  1  0  0  0  0
 19 20  1  0  0  0  0
 20 44  1  0  0  0  0
 20 45  1  0  0  0  0
 20 46  1  0  0  0  0
 21 47  1  0  0  0  0
 21 48  1  0  0  0  0
 21 49  1  0  0  0  0
 22 50  1  0  0  0  0
 22 23  1  0  0  0  0
 22 27  1  0  0  0  0
 23 51  1  0  0  0  0
 23 52  1  0  0  0  0
 23 24  1  0  0  0  0
 24 53  1  0  0  0  0
 24 54  1  0  0  0  0
 24 25  1  0  0  0  0
 25 55  1  0  0  0  0
 25 56  1  0  0  0  0
 25 26  1  0  0  0  0
 26 57  1  0  0  0  0
 26 58  1  0  0  0  0
 26 27  1  0  0  0  0
 27 59  1  0  0  0  0
 27 60  1  0  0  0  0
 28 29  1  0  0  0  0
 28 61  1  0  0  0  0
 28 62  1  0  0  0  0
 29 30  1  0  0  0  0
 29 63  1  0  0  0  0
 29 64  1  0  0  0  0
 30 65  1  0  0  0  0
 30 66  1  0  0  0  0
 31 32  1  0  0  0  0
 32 67  1  0  0  0  0
 33 68  1  0  0  0  0
 33 34  1  0  0  0  0
 34 69  1  0  0  0  0
 34 35  2  0  0  0  0
 35 70  1  0  0  0  0
M  ZZC   1 o1
M  ZZC   2 c1
M  ZZC   3 c2
M  ZZC   4 c3
M  ZZC   5 c4
M  ZZC   6 o2
M  ZZC   7 c5
M  ZZC   8 n1
M  ZZC   9 c6
M  ZZC  10 c7
M  ZZC  11 n2
M  ZZC  12 c8
M  ZZC  13 o3
M  ZZC  14 c9
M  ZZC  15 n3
M  ZZC  16 c10
M  ZZC  17 o4
M  ZZC  18 c11
M  ZZC  19 n4
M  ZZC  20 c12
M  ZZC  21 c13
M  ZZC  22 c14
M  ZZC  23 c15
M  ZZC  24 c16
M  ZZC  25 c17
M  ZZC  26 c18
M  ZZC  27 c19
M  ZZC  28 c20
M  ZZC  29 c21
M  ZZC  30 c22
M  ZZC  31 s1
M  ZZC  32 c23
M  ZZC  33 c24
M  ZZC  34 c25
M  ZZC  35 c26
M  ZZC  36 h11
M  ZZC  37 h21
M  ZZC  38 h71
M  ZZC  39 h91
M  ZZC  40 h31
M  ZZC  41 h111
M  ZZC  42 h41
M  ZZC  43 h42
M  ZZC  44 h121
M  ZZC  45 h122
M  ZZC  46 h123
M  ZZC  47 h131
M  ZZC  48 h132
M  ZZC  49 h133
M  ZZC  50 h141
M  ZZC  51 h151
M  ZZC  52 h152
M  ZZC  53 h161
M  ZZC  54 h162
M  ZZC  55 h171
M  ZZC  56 h172
M  ZZC  57 h181
M  ZZC  58 h182
M  ZZC  59 h191
M  ZZC  60 h192
M  ZZC  61 h201
M  ZZC  62 h202
M  ZZC  63 h211
M  ZZC  64 h212
M  ZZC  65 h221
M  ZZC  66 h222
M  ZZC  67 h231
M  ZZC  68 h241
M  ZZC  69 h251
M  ZZC  70 h261
M  ZZM   1 6
M  ZZI   1 62
M  ZZM   2 37
M  ZZI   2 124
M  ZZM   3 37
M  ZZI   3 125
M  ZZM   4 37
M  ZZI   4 124
M  ZZM   5 3
M  ZZI   5 122
M  ZZM   6 7
M  ZZI   6 80
M  ZZM   7 64
M  ZZI   7 105
M  ZZM   8 66
M  ZZI   8 222
M  ZZM   9 63
M  ZZI   9 104
M  ZZM  10 1
M  ZZI  10 113
M  ZZM  11 10
M  ZZI  11 192
M  ZZM  12 3
M  ZZI  12 121
M  ZZM  13 7
M  ZZI  13 81
M  ZZM  14 1
M  ZZI  14 113
M  ZZM  15 10
M  ZZI  15 211
M  ZZM  16 3
M  ZZI  16 121
M  ZZM  17 7
M  ZZI  17 81
M  ZZM  18 1
M  ZZI  18 113
M  ZZM  19 34
M  ZZI  19 231
M  ZZM  20 1
M  ZZI  20 111
M  ZZM  21 1
M  ZZI  21 111
M  ZZM  22 1
M  ZZI  22 113
M  ZZM  23 1
M  ZZI  23 112
M  ZZM  24 1
M  ZZI  24 112
M  ZZM  25 1
M  ZZI  25 112
M  ZZM  26 1
M  ZZI  26 112
M  ZZM  27 1
M  ZZI  27 112
M  ZZM  28 1
M  ZZI  28 112
M  ZZM  29 1
M  ZZI  29 112
M  ZZM  30 1
M  ZZI  30 112
M  ZZM  31 44
M  ZZI  31 248
M  ZZM  32 63
M  ZZI  32 104
M  ZZM  33 37
M  ZZI  33 125
M  ZZM  34 37
M  ZZI  34 125
M  ZZM  35 37
M  ZZI  35 125
M  ZZM  36 29
M  ZZI  36 27
M  ZZM  37 5
M  ZZI  37 1
M  ZZM  38 5
M  ZZI  38 1
M  ZZM  39 5
M  ZZI  39 1
M  ZZM  40 28
M  ZZI  40 11
M  ZZM  41 5
M  ZZI  41 1
M  ZZM  42 36
M  ZZI  42 17
M  ZZM  43 36
M  ZZI  43 17
M  ZZM  44 5
M  ZZI  44 1
M  ZZM  45 5
M  ZZI  45 1
M  ZZM  46 5
M  ZZI  46 1
M  ZZM  47 5
M  ZZI  47 1
M  ZZM  48 5
M  ZZI  48 1
M  ZZM  49 5
M  ZZI  49 1
M  ZZM  50 5
M  ZZI  50 1
M  ZZM  51 5
M  ZZI  51 1
M  ZZM  52 5
M  ZZI  52 1
M  ZZM  53 5
M  ZZI  53 1
M  ZZM  54 5
M  ZZI  54 1
M  ZZM  55 5
M  ZZI  55 1
M  ZZM  56 5
M  ZZI  56 1
M  ZZM  57 5
M  ZZI  57 1
M  ZZM  58 5
M  ZZI  58 1
M  ZZM  59 5
M  ZZI  59 1
M  ZZM  60 5
M  ZZI  60 1
M  ZZM  61 5
M  ZZI  61 1
M  ZZM  62 5
M  ZZI  62 1
M  ZZM  63 5
M  ZZI  63 1
M  ZZM  64 5
M  ZZI  64 1
M  ZZM  65 5
M  ZZI  65 1
M  ZZM  66 5
M  ZZI  66 1
M  ZZM  67 5
M  ZZI  67 1
M  ZZM  68 5
M  ZZI  68 1
M  ZZM  69 5
M  ZZI  69 1
M  ZZM  70 5
M  ZZI  70 1
M  CHG  1  19   1
M  END
> <IX>
1

> <NAME>
IAPBIR2_4QNQ_58.pdb

> <Score>
-15.64773

> <Natom>
70

> <Nflex>
7

> <Hbond>
-3.249348

> <Hphob>
-5.247032

> <VwInt>
-51.63396

> <Dsolv>
16.379451

> <SolEl>
39.834847

> <Eintl>
8.245005

> <RecConf>
ND

> <projPath>
IAPBIR2_maps/

> <NAME_>
IAPBIR2_4QNQ_58.pdb

$$$$
