IAPBIR2_4QNQ_66.pdb
  MOLSOFT 04032206373D

 71 74  0  0  1  0  0  0  0  0999 V2000
   17.4837   50.7511   27.6061 O   0  0  0  0  0  0  0  0  0  0  0  0
   16.8318   50.7060   26.3890 C   0  0  0  0  0  0  0  0  0  0  0  0
   17.5254   50.8792   25.2047 C   0  0  0  0  0  0  0  0  0  0  0  0
   16.8701   50.7512   23.9836 C   0  0  0  0  0  0  0  0  0  0  0  0
   15.4837   50.5238   23.9730 C   0  0  0  0  0  0  0  0  0  0  0  0
   14.7041   50.3943   22.6839 C   0  0  2  0  0  0  0  0  0  0  0  0
   14.3315   49.0095   22.4313 N   0  0  0  0  0  0  0  0  0  0  0  0
   13.0474   48.6157   22.1037 C   0  0  0  0  0  0  0  0  0  0  0  0
   12.0720   49.3486   22.1931 O   0  0  0  0  0  0  0  0  0  0  0  0
   13.0015   47.2171   21.4703 C   0  0  1  0  0  0  0  0  0  0  0  0
   11.8134   46.3084   21.8514 C   0  0  0  0  0  0  0  0  0  0  0  0
   12.1910   44.8325   21.6790 C   0  0  0  0  0  0  0  0  0  0  0  0
   11.2992   46.4821   23.2840 C   0  0  0  0  0  0  0  0  0  0  0  0
   10.7536   46.6923   20.8240 C   0  0  0  0  0  0  0  0  0  0  0  0
   11.5293   47.0634   19.5689 C   0  0  1  0  0  0  0  0  0  0  0  0
   10.8362   48.1532   18.9606 O   0  0  0  0  0  0  0  0  0  0  0  0
   11.1666   48.3469   17.5869 C   0  0  0  0  0  0  0  0  0  0  0  0
   12.5094   49.0385   17.4592 C   0  0  0  0  0  0  0  0  0  0  0  0
   13.6778   48.1055   17.7686 C   0  0  1  0  0  0  0  0  0  0  0  0
   14.8848   48.6691   17.1620 N   0  0  0  0  0  0  0  0  0  0  0  0
   15.2375   48.3458   15.8649 C   0  0  0  0  0  0  0  0  0  0  0  0
   14.6528   47.4890   15.2244 O   0  0  0  0  0  0  0  0  0  0  0  0
   16.3966   49.1450   15.2684 C   0  0  2  0  0  0  0  0  0  0  0  0
   16.6474   48.8268   13.8032 N   0  3  0  0  0  0  0  0  0  0  0  0
   15.6053   49.2899   12.8412 C   0  0  0  0  0  0  0  0  0  0  0  0
   17.6714   48.8247   16.0192 C   0  0  0  0  0  0  0  0  0  0  0  0
   13.9249   47.8820   19.2614 C   0  0  0  0  0  0  0  0  0  0  0  0
   15.0455   48.0256   19.7313 O   0  0  0  0  0  0  0  0  0  0  0  0
   12.8416   47.4685   20.0392 N   0  0  0  0  0  0  0  0  0  0  0  0
   15.4959   50.9340   21.4901 C   0  0  0  0  0  0  0  0  0  0  0  0
   16.9157   50.3874   21.4922 C   0  0  0  0  0  0  0  0  0  0  0  0
   17.6691   50.8905   22.7119 C   0  0  0  0  0  0  0  0  0  0  0  0
   14.8043   50.3910   25.1849 C   0  0  0  0  0  0  0  0  0  0  0  0
   15.4751   50.4752   26.3898 C   0  0  0  0  0  0  0  0  0  0  0  0
   18.4368   50.6425   27.4355 H   0  0  0  0  0  0  0  0  0  0  0  0
   18.5817   51.1229   25.2287 H   0  0  0  0  0  0  0  0  0  0  0  0
   13.7888   50.9907   22.7667 H   0  0  0  0  0  0  0  0  0  0  0  0
   15.0835   48.3306   22.3685 H   0  0  0  0  0  0  0  0  0  0  0  0
   13.9557   46.7115   21.6448 H   0  0  0  0  0  0  0  0  0  0  0  0
   11.3362   44.1735   21.8616 H   0  0  0  0  0  0  0  0  0  0  0  0
   12.9797   44.5454   22.3799 H   0  0  0  0  0  0  0  0  0  0  0  0
   12.5416   44.6244   20.6695 H   0  0  0  0  0  0  0  0  0  0  0  0
   12.0876   46.2699   24.0132 H   0  0  0  0  0  0  0  0  0  0  0  0
   10.4640   45.8176   23.5185 H   0  0  0  0  0  0  0  0  0  0  0  0
   10.9683   47.5070   23.4548 H   0  0  0  0  0  0  0  0  0  0  0  0
   10.0367   45.8880   20.6237 H   0  0  0  0  0  0  0  0  0  0  0  0
   10.1626   47.5472   21.1733 H   0  0  0  0  0  0  0  0  0  0  0  0
   11.6182   46.2136   18.8819 H   0  0  0  0  0  0  0  0  0  0  0  0
   11.1240   47.4002   17.0358 H   0  0  0  0  0  0  0  0  0  0  0  0
   10.3931   48.9968   17.1679 H   0  0  0  0  0  0  0  0  0  0  0  0
   12.5979   49.4085   16.4321 H   0  0  0  0  0  0  0  0  0  0  0  0
   12.5462   49.9107   18.1220 H   0  0  0  0  0  0  0  0  0  0  0  0
   13.4986   47.1289   17.3193 H   0  0  0  0  0  0  0  0  0  0  0  0
   15.4333   49.3289   17.7090 H   0  0  0  0  0  0  0  0  0  0  0  0
   16.1819   50.2172   15.3317 H   0  0  0  0  0  0  0  0  0  0  0  0
   17.5461   49.2395   13.5170 H   0  0  0  0  0  0  0  0  0  0  0  0
   16.7844   47.8108   13.6930 H   0  0  0  0  0  0  0  0  0  0  0  0
   14.6712   48.7628   13.0451 H   0  0  0  0  0  0  0  0  0  0  0  0
   15.9598   49.0490   11.8356 H   0  0  0  0  0  0  0  0  0  0  0  0
   15.4879   50.3709   12.9560 H   0  0  0  0  0  0  0  0  0  0  0  0
   17.6146   49.1380   17.0658 H   0  0  0  0  0  0  0  0  0  0  0  0
   18.5230   49.3113   15.5468 H   0  0  0  0  0  0  0  0  0  0  0  0
   17.8663   47.7530   16.0112 H   0  0  0  0  0  0  0  0  0  0  0  0
   14.9999   50.6749   20.5489 H   0  0  0  0  0  0  0  0  0  0  0  0
   15.5352   52.0289   21.5305 H   0  0  0  0  0  0  0  0  0  0  0  0
   16.9040   49.2915   21.4864 H   0  0  0  0  0  0  0  0  0  0  0  0
   17.4410   50.6957   20.5846 H   0  0  0  0  0  0  0  0  0  0  0  0
   17.9243   51.9469   22.5739 H   0  0  0  0  0  0  0  0  0  0  0  0
   18.6103   50.3350   22.7950 H   0  0  0  0  0  0  0  0  0  0  0  0
   13.7349   50.2002   25.1920 H   0  0  0  0  0  0  0  0  0  0  0  0
   14.9431   50.3556   27.3266 H   0  0  0  0  0  0  0  0  0  0  0  0
  1 35  1  0  0  0  0
  1  2  1  0  0  0  0
  2  3  1  0  0  0  0
  2 34  2  0  0  0  0
  3 36  1  0  0  0  0
  3  4  2  0  0  0  0
  4 32  1  0  0  0  0
  4  5  1  0  0  0  0
  6  5  1  0  0  0  0
  5 33  2  0  0  0  0
  6 30  1  0  0  0  0
  6 37  1  0  0  0  0
  6  7  1  0  0  0  0
  7 38  1  0  0  0  0
  7  8  1  0  0  0  0
  8  9  2  0  0  0  0
 10  8  1  0  0  0  0
 10 39  1  0  0  0  0
 10 11  1  0  0  0  0
 10 29  1  0  0  0  0
 11 13  1  0  0  0  0
 11 12  1  0  0  0  0
 11 14  1  0  0  0  0
 12 40  1  0  0  0  0
 12 41  1  0  0  0  0
 12 42  1  0  0  0  0
 13 43  1  0  0  0  0
 13 44  1  0  0  0  0
 13 45  1  0  0  0  0
 14 46  1  0  0  0  0
 14 47  1  0  0  0  0
 15 14  1  0  0  0  0
 15 48  1  0  0  0  0
 15 29  1  0  0  0  0
 15 16  1  0  0  0  0
 16 17  1  0  0  0  0
 17 18  1  0  0  0  0
 17 49  1  0  0  0  0
 17 50  1  0  0  0  0
 19 18  1  0  0  0  0
 18 51  1  0  0  0  0
 18 52  1  0  0  0  0
 19 27  1  0  0  0  0
 19 53  1  0  0  0  0
 19 20  1  0  0  0  0
 20 54  1  0  0  0  0
 20 21  1  0  0  0  0
 21 22  2  0  0  0  0
 23 21  1  0  0  0  0
 23 55  1  0  0  0  0
 23 26  1  0  0  0  0
 23 24  1  0  0  0  0
 24 56  1  0  0  0  0
 24 57  1  0  0  0  0
 24 25  1  0  0  0  0
 25 58  1  0  0  0  0
 25 59  1  0  0  0  0
 25 60  1  0  0  0  0
 26 61  1  0  0  0  0
 26 62  1  0  0  0  0
 26 63  1  0  0  0  0
 27 29  1  0  0  0  0
 27 28  2  0  0  0  0
 30 31  1  0  0  0  0
 30 64  1  0  0  0  0
 30 65  1  0  0  0  0
 31 32  1  0  0  0  0
 31 66  1  0  0  0  0
 31 67  1  0  0  0  0
 32 68  1  0  0  0  0
 32 69  1  0  0  0  0
 33 70  1  0  0  0  0
 33 34  1  0  0  0  0
 34 71  1  0  0  0  0
M  ZZC   1 o1
M  ZZC   2 c1
M  ZZC   3 c2
M  ZZC   4 c3
M  ZZC   5 c4
M  ZZC   6 c5
M  ZZC   7 n1
M  ZZC   8 c6
M  ZZC   9 o2
M  ZZC  10 c7
M  ZZC  11 c8
M  ZZC  12 c9
M  ZZC  13 c10
M  ZZC  14 c11
M  ZZC  15 c12
M  ZZC  16 o3
M  ZZC  17 c13
M  ZZC  18 c14
M  ZZC  19 c15
M  ZZC  20 n2
M  ZZC  21 c16
M  ZZC  22 o4
M  ZZC  23 c17
M  ZZC  24 n3
M  ZZC  25 c18
M  ZZC  26 c19
M  ZZC  27 c20
M  ZZC  28 o5
M  ZZC  29 n4
M  ZZC  30 c21
M  ZZC  31 c22
M  ZZC  32 c23
M  ZZC  33 c24
M  ZZC  34 c25
M  ZZC  35 h11
M  ZZC  36 h21
M  ZZC  37 h51
M  ZZC  38 h01
M  ZZC  39 h71
M  ZZC  40 h91
M  ZZC  41 h92
M  ZZC  42 h93
M  ZZC  43 h101
M  ZZC  44 h102
M  ZZC  45 h103
M  ZZC  46 h111
M  ZZC  47 h112
M  ZZC  48 h121
M  ZZC  49 h131
M  ZZC  50 h132
M  ZZC  51 h141
M  ZZC  52 h142
M  ZZC  53 h151
M  ZZC  54 h02
M  ZZC  55 h171
M  ZZC  56 h31
M  ZZC  57 h32
M  ZZC  58 h181
M  ZZC  59 h182
M  ZZC  60 h183
M  ZZC  61 h191
M  ZZC  62 h192
M  ZZC  63 h193
M  ZZC  64 h211
M  ZZC  65 h212
M  ZZC  66 h221
M  ZZC  67 h222
M  ZZC  68 h231
M  ZZC  69 h232
M  ZZC  70 h241
M  ZZC  71 h251
M  ZZM   1 6
M  ZZI   1 62
M  ZZM   2 37
M  ZZI   2 124
M  ZZM   3 37
M  ZZI   3 125
M  ZZM   4 37
M  ZZI   4 124
M  ZZM   5 37
M  ZZI   5 124
M  ZZM   6 1
M  ZZI   6 113
M  ZZM   7 10
M  ZZI   7 211
M  ZZM   8 3
M  ZZI   8 121
M  ZZM   9 7
M  ZZI   9 81
M  ZZM  10 1
M  ZZI  10 113
M  ZZM  11 1
M  ZZI  11 110
M  ZZM  12 1
M  ZZI  12 111
M  ZZM  13 1
M  ZZI  13 111
M  ZZM  14 1
M  ZZI  14 112
M  ZZM  15 1
M  ZZI  15 113
M  ZZM  16 6
M  ZZI  16 65
M  ZZM  17 1
M  ZZI  17 112
M  ZZM  18 1
M  ZZI  18 112
M  ZZM  19 1
M  ZZI  19 113
M  ZZM  20 10
M  ZZI  20 211
M  ZZM  21 3
M  ZZI  21 121
M  ZZM  22 7
M  ZZI  22 81
M  ZZM  23 1
M  ZZI  23 113
M  ZZM  24 34
M  ZZI  24 231
M  ZZM  25 1
M  ZZI  25 111
M  ZZM  26 1
M  ZZI  26 111
M  ZZM  27 3
M  ZZI  27 121
M  ZZM  28 7
M  ZZI  28 81
M  ZZM  29 10
M  ZZI  29 192
M  ZZM  30 1
M  ZZI  30 112
M  ZZM  31 1
M  ZZI  31 112
M  ZZM  32 1
M  ZZI  32 112
M  ZZM  33 37
M  ZZI  33 125
M  ZZM  34 37
M  ZZI  34 125
M  ZZM  35 29
M  ZZI  35 27
M  ZZM  36 5
M  ZZI  36 1
M  ZZM  37 5
M  ZZI  37 1
M  ZZM  38 28
M  ZZI  38 11
M  ZZM  39 5
M  ZZI  39 1
M  ZZM  40 5
M  ZZI  40 1
M  ZZM  41 5
M  ZZI  41 1
M  ZZM  42 5
M  ZZI  42 1
M  ZZM  43 5
M  ZZI  43 1
M  ZZM  44 5
M  ZZI  44 1
M  ZZM  45 5
M  ZZI  45 1
M  ZZM  46 5
M  ZZI  46 1
M  ZZM  47 5
M  ZZI  47 1
M  ZZM  48 5
M  ZZI  48 1
M  ZZM  49 5
M  ZZI  49 1
M  ZZM  50 5
M  ZZI  50 1
M  ZZM  51 5
M  ZZI  51 1
M  ZZM  52 5
M  ZZI  52 1
M  ZZM  53 5
M  ZZI  53 1
M  ZZM  54 28
M  ZZI  54 11
M  ZZM  55 5
M  ZZI  55 1
M  ZZM  56 36
M  ZZI  56 17
M  ZZM  57 36
M  ZZI  57 17
M  ZZM  58 5
M  ZZI  58 1
M  ZZM  59 5
M  ZZI  59 1
M  ZZM  60 5
M  ZZI  60 1
M  ZZM  61 5
M  ZZI  61 1
M  ZZM  62 5
M  ZZI  62 1
M  ZZM  63 5
M  ZZI  63 1
M  ZZM  64 5
M  ZZI  64 1
M  ZZM  65 5
M  ZZI  65 1
M  ZZM  66 5
M  ZZI  66 1
M  ZZM  67 5
M  ZZI  67 1
M  ZZM  68 5
M  ZZI  68 1
M  ZZM  69 5
M  ZZI  69 1
M  ZZM  70 5
M  ZZI  70 1
M  ZZM  71 5
M  ZZI  71 1
M  CHG  1  24   1
M  END
> <IX>
1

> <NAME>
IAPBIR2_4QNQ_66.pdb

> <Score>
-17.699267

> <Natom>
71

> <Nflex>
5

> <Hbond>
-4.064503

> <Hphob>
-4.999752

> <VwInt>
-43.520212

> <Dsolv>
19.87971

> <SolEl>
26.673115

> <Eintl>
6.566554

> <RecConf>
ND

> <projPath>
IAPBIR2_maps/

> <NAME_>
IAPBIR2_4QNQ_66.pdb

$$$$
