IAPBIR2_6XJK_13.pdb
  MOLSOFT 04032206393D

 82 85  0  0  1  0  0  0  0  0999 V2000
   10.0139   51.5468   25.1610 C   0  0  0  0  0  0  0  0  0  0  0  0
   11.1206   50.5586   24.9149 C   0  0  0  0  0  0  0  0  0  0  0  0
   11.6298   49.9161   25.8211 O   0  0  0  0  0  0  0  0  0  0  0  0
   11.4553   50.4500   23.5794 N   0  0  0  0  0  0  0  0  0  0  0  0
   12.4984   49.5439   23.1188 C   0  0  2  0  0  0  0  0  0  0  0  0
   12.8240   49.6738   21.6341 C   0  0  0  0  0  0  0  0  0  0  0  0
   13.3865   48.3863   21.2700 N   0  0  0  0  0  0  0  0  0  0  0  0
   14.4060   48.1211   20.3533 C   0  0  0  0  0  0  0  0  0  0  0  0
   14.8169   46.9826   20.1979 O   0  0  0  0  0  0  0  0  0  0  0  0
   15.1104   49.2767   19.6270 C   0  0  1  0  0  0  0  0  0  0  0  0
   16.3013   49.4818   20.4609 N   0  0  0  0  0  0  0  0  0  0  0  0
   16.4806   50.5859   21.2756 C   0  0  0  0  0  0  0  0  0  0  0  0
   15.7458   51.5625   21.2650 O   0  0  0  0  0  0  0  0  0  0  0  0
   17.6930   50.4853   22.2113 C   0  0  1  0  0  0  0  0  0  0  0  0
   18.9536   51.0191   21.5563 N   0  3  0  0  0  0  0  0  0  0  0  0
   20.2313   50.8012   22.2970 C   0  0  0  0  0  0  0  0  0  0  0  0
   17.4172   51.2587   23.4992 C   0  0  0  0  0  0  0  0  0  0  0  0
   15.5007   48.8293   18.1988 C   0  0  0  0  0  0  0  0  0  0  0  0
   14.2686   48.6548   17.3012 C   0  0  0  0  0  0  0  0  0  0  0  0
   14.6394   48.1670   15.9044 C   0  0  0  0  0  0  0  0  0  0  0  0
   15.6774   49.0523   15.2374 C   0  0  0  0  0  0  0  0  0  0  0  0
   16.8941   49.2604   16.1251 C   0  0  0  0  0  0  0  0  0  0  0  0
   16.5169   49.7527   17.5225 C   0  0  0  0  0  0  0  0  0  0  0  0
   13.0848   47.3873   22.2933 C   0  0  2  0  0  0  0  0  0  0  0  0
   12.5165   46.0436   21.8355 C   0  0  0  0  0  0  0  0  0  0  0  0
   12.9255   44.9956   22.3115 O   0  0  0  0  0  0  0  0  0  0  0  0
   11.4319   46.1080   20.9846 N   0  0  0  0  0  0  0  0  0  0  0  0
   10.7323   44.9090   20.5392 C   0  0  1  0  0  0  0  0  0  0  0  0
    9.6496   44.4812   21.5131 C   0  0  0  0  0  0  0  0  0  0  0  0
    8.2882   44.6347   21.2146 C   0  0  0  0  0  0  0  0  0  0  0  0
    7.3316   44.1814   22.1197 C   0  0  0  0  0  0  0  0  0  0  0  0
    7.6966   43.5844   23.3100 C   0  0  0  0  0  0  0  0  0  0  0  0
    9.0308   43.4407   23.6156 C   0  0  0  0  0  0  0  0  0  0  0  0
    9.9940   43.8850   22.7295 C   0  0  0  0  0  0  0  0  0  0  0  0
    7.8165   45.2015   19.9013 C   0  0  0  0  0  0  0  0  0  0  0  0
    8.9051   45.9501   19.1508 C   0  0  0  0  0  0  0  0  0  0  0  0
   10.1800   45.1284   19.1274 C   0  0  0  0  0  0  0  0  0  0  0  0
   12.1104   48.0823   23.2352 C   0  0  0  0  0  0  0  0  0  0  0  0
   10.2716   52.5154   24.7215 H   0  0  0  0  0  0  0  0  0  0  0  0
    9.8674   51.6767   26.2374 H   0  0  0  0  0  0  0  0  0  0  0  0
    9.0852   51.1793   24.7139 H   0  0  0  0  0  0  0  0  0  0  0  0
   10.9613   51.0230   22.9034 H   0  0  0  0  0  0  0  0  0  0  0  0
   13.3988   49.7245   23.7202 H   0  0  0  0  0  0  0  0  0  0  0  0
   11.9222   49.8184   21.0283 H   0  0  0  0  0  0  0  0  0  0  0  0
   13.4985   50.5061   21.4363 H   0  0  0  0  0  0  0  0  0  0  0  0
   14.4962   50.1808   19.5979 H   0  0  0  0  0  0  0  0  0  0  0  0
   16.9647   48.7135   20.5094 H   0  0  0  0  0  0  0  0  0  0  0  0
   17.8763   49.4305   22.4416 H   0  0  0  0  0  0  0  0  0  0  0  0
   19.0601   50.5581   20.6436 H   0  0  0  0  0  0  0  0  0  0  0  0
   18.8460   52.0221   21.3461 H   0  0  0  0  0  0  0  0  0  0  0  0
   20.2160   51.3969   23.2122 H   0  0  0  0  0  0  0  0  0  0  0  0
   21.0438   51.1353   21.6464 H   0  0  0  0  0  0  0  0  0  0  0  0
   20.3300   49.7341   22.5137 H   0  0  0  0  0  0  0  0  0  0  0  0
   17.3398   52.3349   23.3150 H   0  0  0  0  0  0  0  0  0  0  0  0
   18.2020   51.1012   24.2428 H   0  0  0  0  0  0  0  0  0  0  0  0
   16.4749   50.9322   23.9499 H   0  0  0  0  0  0  0  0  0  0  0  0
   15.9865   47.8581   18.2828 H   0  0  0  0  0  0  0  0  0  0  0  0
   13.5675   47.9416   17.7452 H   0  0  0  0  0  0  0  0  0  0  0  0
   13.7317   49.6060   17.2198 H   0  0  0  0  0  0  0  0  0  0  0  0
   15.0356   47.1521   15.9636 H   0  0  0  0  0  0  0  0  0  0  0  0
   13.7418   48.1143   15.2815 H   0  0  0  0  0  0  0  0  0  0  0  0
   15.9856   48.6035   14.2868 H   0  0  0  0  0  0  0  0  0  0  0  0
   15.2301   50.0233   15.0009 H   0  0  0  0  0  0  0  0  0  0  0  0
   17.4498   48.3205   16.2057 H   0  0  0  0  0  0  0  0  0  0  0  0
   17.5678   49.9725   15.6420 H   0  0  0  0  0  0  0  0  0  0  0  0
   16.1175   50.7704   17.4587 H   0  0  0  0  0  0  0  0  0  0  0  0
   17.4248   49.8052   18.1291 H   0  0  0  0  0  0  0  0  0  0  0  0
   14.0329   47.2000   22.7996 H   0  0  0  0  0  0  0  0  0  0  0  0
   11.0935   47.0163   20.6905 H   0  0  0  0  0  0  0  0  0  0  0  0
   11.4716   44.1023   20.4863 H   0  0  0  0  0  0  0  0  0  0  0  0
    6.2750   44.2737   21.8873 H   0  0  0  0  0  0  0  0  0  0  0  0
    6.9390   43.2133   23.9935 H   0  0  0  0  0  0  0  0  0  0  0  0
    9.3190   42.9599   24.5425 H   0  0  0  0  0  0  0  0  0  0  0  0
   11.0353   43.7243   22.9890 H   0  0  0  0  0  0  0  0  0  0  0  0
    7.4564   44.3737   19.2794 H   0  0  0  0  0  0  0  0  0  0  0  0
    6.9702   45.8769   20.0661 H   0  0  0  0  0  0  0  0  0  0  0  0
    8.5719   46.1516   18.1277 H   0  0  0  0  0  0  0  0  0  0  0  0
    9.0877   46.9228   19.6198 H   0  0  0  0  0  0  0  0  0  0  0  0
   10.9241   45.6226   18.4928 H   0  0  0  0  0  0  0  0  0  0  0  0
    9.9517   44.1657   18.6593 H   0  0  0  0  0  0  0  0  0  0  0  0
   12.1898   47.7067   24.2593 H   0  0  0  0  0  0  0  0  0  0  0  0
   11.0679   47.9347   22.9291 H   0  0  0  0  0  0  0  0  0  0  0  0
  1 39  1  0  0  0  0
  1 40  1  0  0  0  0
  1 41  1  0  0  0  0
  1  2  1  0  0  0  0
  2  3  2  0  0  0  0
  2  4  1  0  0  0  0
  4 42  1  0  0  0  0
  5  4  1  0  0  0  0
  5 43  1  0  0  0  0
  5 38  1  0  0  0  0
  5  6  1  0  0  0  0
  6  7  1  0  0  0  0
  6 44  1  0  0  0  0
  6 45  1  0  0  0  0
 24  7  1  0  0  0  0
  7  8  1  0  0  0  0
  8  9  2  0  0  0  0
 10  8  1  0  0  0  0
 10 46  1  0  0  0  0
 10 11  1  0  0  0  0
 10 18  1  0  0  0  0
 11 47  1  0  0  0  0
 11 12  1  0  0  0  0
 12 13  2  0  0  0  0
 14 12  1  0  0  0  0
 14 48  1  0  0  0  0
 14 17  1  0  0  0  0
 14 15  1  0  0  0  0
 15 49  1  0  0  0  0
 15 50  1  0  0  0  0
 15 16  1  0  0  0  0
 16 51  1  0  0  0  0
 16 52  1  0  0  0  0
 16 53  1  0  0  0  0
 17 54  1  0  0  0  0
 17 55  1  0  0  0  0
 17 56  1  0  0  0  0
 18 57  1  0  0  0  0
 18 19  1  0  0  0  0
 18 23  1  0  0  0  0
 19 58  1  0  0  0  0
 19 59  1  0  0  0  0
 19 20  1  0  0  0  0
 20 60  1  0  0  0  0
 20 61  1  0  0  0  0
 20 21  1  0  0  0  0
 21 62  1  0  0  0  0
 21 63  1  0  0  0  0
 21 22  1  0  0  0  0
 22 64  1  0  0  0  0
 22 65  1  0  0  0  0
 22 23  1  0  0  0  0
 23 66  1  0  0  0  0
 23 67  1  0  0  0  0
 24 38  1  0  0  0  0
 24 68  1  0  0  0  0
 24 25  1  0  0  0  0
 25 26  2  0  0  0  0
 25 27  1  0  0  0  0
 27 69  1  0  0  0  0
 28 27  1  0  0  0  0
 28 70  1  0  0  0  0
 28 29  1  0  0  0  0
 28 37  1  0  0  0  0
 29 30  2  0  0  0  0
 29 34  1  0  0  0  0
 30 35  1  0  0  0  0
 30 31  1  0  0  0  0
 31 71  1  0  0  0  0
 31 32  2  0  0  0  0
 32 72  1  0  0  0  0
 32 33  1  0  0  0  0
 33 73  1  0  0  0  0
 33 34  2  0  0  0  0
 34 74  1  0  0  0  0
 35 75  1  0  0  0  0
 35 76  1  0  0  0  0
 35 36  1  0  0  0  0
 36 77  1  0  0  0  0
 36 78  1  0  0  0  0
 36 37  1  0  0  0  0
 37 79  1  0  0  0  0
 37 80  1  0  0  0  0
 38 81  1  0  0  0  0
 38 82  1  0  0  0  0
M  ZZC   1 c1
M  ZZC   2 c2
M  ZZC   3 o1
M  ZZC   4 n1
M  ZZC   5 c3
M  ZZC   6 c4
M  ZZC   7 n2
M  ZZC   8 c5
M  ZZC   9 o2
M  ZZC  10 c6
M  ZZC  11 n3
M  ZZC  12 c7
M  ZZC  13 o3
M  ZZC  14 c8
M  ZZC  15 n4
M  ZZC  16 c9
M  ZZC  17 c10
M  ZZC  18 c11
M  ZZC  19 c12
M  ZZC  20 c13
M  ZZC  21 c14
M  ZZC  22 c15
M  ZZC  23 c16
M  ZZC  24 c17
M  ZZC  25 c18
M  ZZC  26 o4
M  ZZC  27 n5
M  ZZC  28 c19
M  ZZC  29 c20
M  ZZC  30 c21
M  ZZC  31 c22
M  ZZC  32 c23
M  ZZC  33 c24
M  ZZC  34 c25
M  ZZC  35 c26
M  ZZC  36 c27
M  ZZC  37 c28
M  ZZC  38 c29
M  ZZC  39 h11
M  ZZC  40 h12
M  ZZC  41 h13
M  ZZC  42 h01
M  ZZC  43 h31
M  ZZC  44 h41
M  ZZC  45 h42
M  ZZC  46 h61
M  ZZC  47 h02
M  ZZC  48 h81
M  ZZC  49 h03
M  ZZC  50 h04
M  ZZC  51 h91
M  ZZC  52 h92
M  ZZC  53 h93
M  ZZC  54 h101
M  ZZC  55 h102
M  ZZC  56 h103
M  ZZC  57 h111
M  ZZC  58 h121
M  ZZC  59 h122
M  ZZC  60 h131
M  ZZC  61 h132
M  ZZC  62 h141
M  ZZC  63 h142
M  ZZC  64 h151
M  ZZC  65 h152
M  ZZC  66 h161
M  ZZC  67 h162
M  ZZC  68 h171
M  ZZC  69 h51
M  ZZC  70 h191
M  ZZC  71 h221
M  ZZC  72 h231
M  ZZC  73 h241
M  ZZC  74 h251
M  ZZC  75 h261
M  ZZC  76 h262
M  ZZC  77 h271
M  ZZC  78 h272
M  ZZC  79 h281
M  ZZC  80 h282
M  ZZC  81 h291
M  ZZC  82 h292
M  ZZM   1 1
M  ZZI   1 111
M  ZZM   2 3
M  ZZI   2 121
M  ZZM   3 7
M  ZZI   3 81
M  ZZM   4 10
M  ZZI   4 211
M  ZZM   5 1
M  ZZI   5 113
M  ZZM   6 1
M  ZZI   6 112
M  ZZM   7 10
M  ZZI   7 192
M  ZZM   8 3
M  ZZI   8 121
M  ZZM   9 7
M  ZZI   9 81
M  ZZM  10 1
M  ZZI  10 113
M  ZZM  11 10
M  ZZI  11 211
M  ZZM  12 3
M  ZZI  12 121
M  ZZM  13 7
M  ZZI  13 81
M  ZZM  14 1
M  ZZI  14 113
M  ZZM  15 34
M  ZZI  15 231
M  ZZM  16 1
M  ZZI  16 111
M  ZZM  17 1
M  ZZI  17 111
M  ZZM  18 1
M  ZZI  18 113
M  ZZM  19 1
M  ZZI  19 112
M  ZZM  20 1
M  ZZI  20 112
M  ZZM  21 1
M  ZZI  21 112
M  ZZM  22 1
M  ZZI  22 112
M  ZZM  23 1
M  ZZI  23 112
M  ZZM  24 1
M  ZZI  24 113
M  ZZM  25 3
M  ZZI  25 121
M  ZZM  26 7
M  ZZI  26 81
M  ZZM  27 10
M  ZZI  27 211
M  ZZM  28 1
M  ZZI  28 113
M  ZZM  29 37
M  ZZI  29 124
M  ZZM  30 37
M  ZZI  30 124
M  ZZM  31 37
M  ZZI  31 125
M  ZZM  32 37
M  ZZI  32 125
M  ZZM  33 37
M  ZZI  33 125
M  ZZM  34 37
M  ZZI  34 125
M  ZZM  35 1
M  ZZI  35 112
M  ZZM  36 1
M  ZZI  36 112
M  ZZM  37 1
M  ZZI  37 112
M  ZZM  38 1
M  ZZI  38 112
M  ZZM  39 5
M  ZZI  39 1
M  ZZM  40 5
M  ZZI  40 1
M  ZZM  41 5
M  ZZI  41 1
M  ZZM  42 28
M  ZZI  42 11
M  ZZM  43 5
M  ZZI  43 1
M  ZZM  44 5
M  ZZI  44 1
M  ZZM  45 5
M  ZZI  45 1
M  ZZM  46 5
M  ZZI  46 1
M  ZZM  47 28
M  ZZI  47 11
M  ZZM  48 5
M  ZZI  48 1
M  ZZM  49 36
M  ZZI  49 17
M  ZZM  50 36
M  ZZI  50 17
M  ZZM  51 5
M  ZZI  51 1
M  ZZM  52 5
M  ZZI  52 1
M  ZZM  53 5
M  ZZI  53 1
M  ZZM  54 5
M  ZZI  54 1
M  ZZM  55 5
M  ZZI  55 1
M  ZZM  56 5
M  ZZI  56 1
M  ZZM  57 5
M  ZZI  57 1
M  ZZM  58 5
M  ZZI  58 1
M  ZZM  59 5
M  ZZI  59 1
M  ZZM  60 5
M  ZZI  60 1
M  ZZM  61 5
M  ZZI  61 1
M  ZZM  62 5
M  ZZI  62 1
M  ZZM  63 5
M  ZZI  63 1
M  ZZM  64 5
M  ZZI  64 1
M  ZZM  65 5
M  ZZI  65 1
M  ZZM  66 5
M  ZZI  66 1
M  ZZM  67 5
M  ZZI  67 1
M  ZZM  68 5
M  ZZI  68 1
M  ZZM  69 28
M  ZZI  69 11
M  ZZM  70 5
M  ZZI  70 1
M  ZZM  71 5
M  ZZI  71 1
M  ZZM  72 5
M  ZZI  72 1
M  ZZM  73 5
M  ZZI  73 1
M  ZZM  74 5
M  ZZI  74 1
M  ZZM  75 5
M  ZZI  75 1
M  ZZM  76 5
M  ZZI  76 1
M  ZZM  77 5
M  ZZI  77 1
M  ZZM  78 5
M  ZZI  78 1
M  ZZM  79 5
M  ZZI  79 1
M  ZZM  80 5
M  ZZI  80 1
M  ZZM  81 5
M  ZZI  81 1
M  ZZM  82 5
M  ZZI  82 1
M  CHG  1  15   1
M  END
> <IX>
1

> <NAME>
IAPBIR2_6XJK_13.pdb

> <Score>
-16.651338

> <Natom>
82

> <Nflex>
9

> <Hbond>
-4.115733

> <Hphob>
-4.440243

> <VwInt>
-59.03489

> <Dsolv>
20.38037

> <SolEl>
34.460022

> <Eintl>
20.570711

> <RecConf>
ND

> <projPath>
IAPBIR2_maps/

> <NAME_>
IAPBIR2_6XJK_13.pdb

$$$$
