IAPBIR2_5P9J_20.pdb
  MOLSOFT 04032206413D

 82 85  0  0  1  0  0  0  0  0999 V2000
   22.7929   20.1934   19.2763 O   0  0  0  0  0  0  0  0  0  0  0  0
   22.1490   21.1562   18.8857 C   0  0  0  0  0  0  0  0  0  0  0  0
   22.1868   21.6296   17.5819 N   0  0  0  0  0  0  0  0  0  0  0  0
   22.9605   20.9749   16.5155 C   0  0  2  0  0  0  0  0  0  0  0  0
   23.4468   21.9750   15.4508 C   0  0  0  0  0  0  0  0  0  0  0  0
   23.4313   21.6861   14.2612 O   0  0  0  0  0  0  0  0  0  0  0  0
   23.9945   23.1865   15.8625 N   0  0  0  0  0  0  0  0  0  0  0  0
   24.1739   24.2513   14.8978 C   0  0  2  0  0  0  0  0  0  0  0  0
   25.4971   24.0802   14.1457 C   0  0  0  0  0  0  0  0  0  0  0  0
   26.5823   24.1124   14.7116 O   0  0  0  0  0  0  0  0  0  0  0  0
   25.3441   23.8726   12.7842 N   0  0  0  0  0  0  0  0  0  0  0  0
   26.4863   23.6761   11.8977 C   0  0  1  0  0  0  0  0  0  0  0  0
   26.0729   23.2427   10.5033 C   0  0  0  0  0  0  0  0  0  0  0  0
   26.6973   23.7494    9.3518 C   0  0  0  0  0  0  0  0  0  0  0  0
   26.3027   23.3098    8.0941 C   0  0  0  0  0  0  0  0  0  0  0  0
   25.3438   22.3306    7.9593 C   0  0  0  0  0  0  0  0  0  0  0  0
   24.7547   21.8014    9.0858 C   0  0  0  0  0  0  0  0  0  0  0  0
   25.1091   22.2502   10.3409 C   0  0  0  0  0  0  0  0  0  0  0  0
   27.7864   24.7817    9.4245 C   0  0  0  0  0  0  0  0  0  0  0  0
   28.4340   24.8092   10.7956 C   0  0  0  0  0  0  0  0  0  0  0  0
   27.3607   24.9318   11.8603 C   0  0  0  0  0  0  0  0  0  0  0  0
   24.1544   25.4978   15.7588 C   0  0  0  0  0  0  0  0  0  0  0  0
   24.7468   25.0829   17.0967 C   0  0  2  0  0  0  0  0  0  0  0  0
   26.1557   25.4420   17.1438 N   0  0  0  0  0  0  0  0  0  0  0  0
   26.7260   26.1093   18.2085 C   0  0  0  0  0  0  0  0  0  0  0  0
   26.1771   26.3342   19.2768 O   0  0  0  0  0  0  0  0  0  0  0  0
   28.1312   26.5577   17.9224 C   0  0  0  0  0  0  0  0  0  0  0  0
   24.4994   23.5744   17.1726 C   0  0  0  0  0  0  0  0  0  0  0  0
   22.1372   19.8636   15.8149 C   0  0  0  0  0  0  0  0  0  0  0  0
   21.9876   18.6048   16.6756 C   0  0  0  0  0  0  0  0  0  0  0  0
   21.2428   17.5130   15.9252 C   0  0  0  0  0  0  0  0  0  0  0  0
   19.8750   18.0038   15.4886 C   0  0  0  0  0  0  0  0  0  0  0  0
   19.9625   19.2674   14.6531 C   0  0  0  0  0  0  0  0  0  0  0  0
   20.7630   20.3658   15.3333 C   0  0  0  0  0  0  0  0  0  0  0  0
   21.1920   21.9117   19.8167 C   0  0  1  0  0  0  0  0  0  0  0  0
   19.9250   21.1286   20.1081 N   0  3  0  0  0  0  0  0  0  0  0  0
   19.0376   20.8696   18.9339 C   0  0  0  0  0  0  0  0  0  0  0  0
   21.8797   22.2043   21.1439 C   0  0  0  0  0  0  0  0  0  0  0  0
   21.7119   22.4948   17.3490 H   0  0  0  0  0  0  0  0  0  0  0  0
   23.8594   20.5391   16.9655 H   0  0  0  0  0  0  0  0  0  0  0  0
   23.3405   24.2547   14.1844 H   0  0  0  0  0  0  0  0  0  0  0  0
   24.4109   23.7454   12.4044 H   0  0  0  0  0  0  0  0  0  0  0  0
   27.0811   22.8616   12.3286 H   0  0  0  0  0  0  0  0  0  0  0  0
   26.7596   23.7237    7.2004 H   0  0  0  0  0  0  0  0  0  0  0  0
   25.0624   21.9748    6.9735 H   0  0  0  0  0  0  0  0  0  0  0  0
   24.0143   21.0224    8.9830 H   0  0  0  0  0  0  0  0  0  0  0  0
   24.6321   21.7961   11.2040 H   0  0  0  0  0  0  0  0  0  0  0  0
   28.5570   24.5723    8.6751 H   0  0  0  0  0  0  0  0  0  0  0  0
   27.3592   25.7617    9.1871 H   0  0  0  0  0  0  0  0  0  0  0  0
   29.0201   23.8980   10.9607 H   0  0  0  0  0  0  0  0  0  0  0  0
   29.1354   25.6460   10.8556 H   0  0  0  0  0  0  0  0  0  0  0  0
   26.7398   25.8119   11.6647 H   0  0  0  0  0  0  0  0  0  0  0  0
   27.8371   25.1059   12.8293 H   0  0  0  0  0  0  0  0  0  0  0  0
   24.6859   26.3400   15.3181 H   0  0  0  0  0  0  0  0  0  0  0  0
   23.1132   25.7887   15.8990 H   0  0  0  0  0  0  0  0  0  0  0  0
   24.2422   25.6028   17.9169 H   0  0  0  0  0  0  0  0  0  0  0  0
   26.7328   25.1956   16.3404 H   0  0  0  0  0  0  0  0  0  0  0  0
   28.7680   25.6891   17.7295 H   0  0  0  0  0  0  0  0  0  0  0  0
   28.5249   27.1082   18.7822 H   0  0  0  0  0  0  0  0  0  0  0  0
   28.1366   27.2172   17.0482 H   0  0  0  0  0  0  0  0  0  0  0  0
   23.7835   23.3295   17.9540 H   0  0  0  0  0  0  0  0  0  0  0  0
   25.4105   23.0030   17.3779 H   0  0  0  0  0  0  0  0  0  0  0  0
   22.6919   19.5435   14.9253 H   0  0  0  0  0  0  0  0  0  0  0  0
   22.9730   18.2311   16.9724 H   0  0  0  0  0  0  0  0  0  0  0  0
   21.4389   18.8240   17.5953 H   0  0  0  0  0  0  0  0  0  0  0  0
   21.8217   17.1995   15.0494 H   0  0  0  0  0  0  0  0  0  0  0  0
   21.1308   16.6326   16.5658 H   0  0  0  0  0  0  0  0  0  0  0  0
   19.3685   17.2215   14.9155 H   0  0  0  0  0  0  0  0  0  0  0  0
   19.2702   18.2052   16.3778 H   0  0  0  0  0  0  0  0  0  0  0  0
   20.4250   19.0257   13.6908 H   0  0  0  0  0  0  0  0  0  0  0  0
   18.9513   19.6321   14.4501 H   0  0  0  0  0  0  0  0  0  0  0  0
   20.1749   20.7561   16.1681 H   0  0  0  0  0  0  0  0  0  0  0  0
   20.8767   21.1999   14.6338 H   0  0  0  0  0  0  0  0  0  0  0  0
   20.8773   22.8542   19.3680 H   0  0  0  0  0  0  0  0  0  0  0  0
   20.1614   20.2323   20.5559 H   0  0  0  0  0  0  0  0  0  0  0  0
   19.3647   21.6377   20.8067 H   0  0  0  0  0  0  0  0  0  0  0  0
   18.1062   20.4428   19.3112 H   0  0  0  0  0  0  0  0  0  0  0  0
   19.5336   20.1535   18.2775 H   0  0  0  0  0  0  0  0  0  0  0  0
   18.8394   21.8137   18.4213 H   0  0  0  0  0  0  0  0  0  0  0  0
   22.1806   21.2863   21.6581 H   0  0  0  0  0  0  0  0  0  0  0  0
   21.2180   22.7588   21.8139 H   0  0  0  0  0  0  0  0  0  0  0  0
   22.7811   22.8048   20.9856 H   0  0  0  0  0  0  0  0  0  0  0  0
  1  2  2  0  0  0  0
  2  3  1  0  0  0  0
 35  2  1  0  0  0  0
  4  3  1  0  0  0  0
  3 39  1  0  0  0  0
  4  5  1  0  0  0  0
  4 40  1  0  0  0  0
  4 29  1  0  0  0  0
  5  7  1  0  0  0  0
  5  6  2  0  0  0  0
  7 28  1  0  0  0  0
  8  7  1  0  0  0  0
  8  9  1  0  0  0  0
  8 41  1  0  0  0  0
  8 22  1  0  0  0  0
  9 11  1  0  0  0  0
  9 10  2  0  0  0  0
 12 11  1  0  0  0  0
 11 42  1  0  0  0  0
 12 13  1  0  0  0  0
 12 43  1  0  0  0  0
 12 21  1  0  0  0  0
 13 18  1  0  0  0  0
 13 14  2  0  0  0  0
 14 19  1  0  0  0  0
 14 15  1  0  0  0  0
 15 44  1  0  0  0  0
 15 16  2  0  0  0  0
 16 45  1  0  0  0  0
 16 17  1  0  0  0  0
 17 46  1  0  0  0  0
 17 18  2  0  0  0  0
 18 47  1  0  0  0  0
 19 20  1  0  0  0  0
 19 48  1  0  0  0  0
 19 49  1  0  0  0  0
 20 21  1  0  0  0  0
 20 50  1  0  0  0  0
 20 51  1  0  0  0  0
 21 52  1  0  0  0  0
 21 53  1  0  0  0  0
 22 54  1  0  0  0  0
 22 55  1  0  0  0  0
 23 22  1  0  0  0  0
 23 56  1  0  0  0  0
 23 24  1  0  0  0  0
 23 28  1  0  0  0  0
 24 57  1  0  0  0  0
 24 25  1  0  0  0  0
 25 26  2  0  0  0  0
 25 27  1  0  0  0  0
 27 58  1  0  0  0  0
 27 59  1  0  0  0  0
 27 60  1  0  0  0  0
 28 61  1  0  0  0  0
 28 62  1  0  0  0  0
 29 63  1  0  0  0  0
 29 30  1  0  0  0  0
 29 34  1  0  0  0  0
 30 64  1  0  0  0  0
 30 65  1  0  0  0  0
 30 31  1  0  0  0  0
 31 66  1  0  0  0  0
 31 67  1  0  0  0  0
 31 32  1  0  0  0  0
 32 68  1  0  0  0  0
 32 69  1  0  0  0  0
 32 33  1  0  0  0  0
 33 70  1  0  0  0  0
 33 71  1  0  0  0  0
 33 34  1  0  0  0  0
 34 72  1  0  0  0  0
 34 73  1  0  0  0  0
 35 74  1  0  0  0  0
 35 38  1  0  0  0  0
 35 36  1  0  0  0  0
 36 75  1  0  0  0  0
 36 76  1  0  0  0  0
 36 37  1  0  0  0  0
 37 77  1  0  0  0  0
 37 78  1  0  0  0  0
 37 79  1  0  0  0  0
 38 80  1  0  0  0  0
 38 81  1  0  0  0  0
 38 82  1  0  0  0  0
M  ZZC   1 o1
M  ZZC   2 c1
M  ZZC   3 n1
M  ZZC   4 c2
M  ZZC   5 c3
M  ZZC   6 o2
M  ZZC   7 n2
M  ZZC   8 c4
M  ZZC   9 c5
M  ZZC  10 o3
M  ZZC  11 n3
M  ZZC  12 c6
M  ZZC  13 c7
M  ZZC  14 c8
M  ZZC  15 c9
M  ZZC  16 c10
M  ZZC  17 c11
M  ZZC  18 c12
M  ZZC  19 c13
M  ZZC  20 c14
M  ZZC  21 c15
M  ZZC  22 c16
M  ZZC  23 c17
M  ZZC  24 n4
M  ZZC  25 c18
M  ZZC  26 o4
M  ZZC  27 c19
M  ZZC  28 c20
M  ZZC  29 c21
M  ZZC  30 c22
M  ZZC  31 c23
M  ZZC  32 c24
M  ZZC  33 c25
M  ZZC  34 c26
M  ZZC  35 c27
M  ZZC  36 n5
M  ZZC  37 c28
M  ZZC  38 c29
M  ZZC  39 h11
M  ZZC  40 h21
M  ZZC  41 h41
M  ZZC  42 h31
M  ZZC  43 h61
M  ZZC  44 h91
M  ZZC  45 h101
M  ZZC  46 h111
M  ZZC  47 h121
M  ZZC  48 h131
M  ZZC  49 h132
M  ZZC  50 h141
M  ZZC  51 h142
M  ZZC  52 h151
M  ZZC  53 h152
M  ZZC  54 h161
M  ZZC  55 h162
M  ZZC  56 h171
M  ZZC  57 h01
M  ZZC  58 h191
M  ZZC  59 h192
M  ZZC  60 h193
M  ZZC  61 h201
M  ZZC  62 h202
M  ZZC  63 h211
M  ZZC  64 h221
M  ZZC  65 h222
M  ZZC  66 h231
M  ZZC  67 h232
M  ZZC  68 h241
M  ZZC  69 h242
M  ZZC  70 h251
M  ZZC  71 h252
M  ZZC  72 h261
M  ZZC  73 h262
M  ZZC  74 h271
M  ZZC  75 h51
M  ZZC  76 h52
M  ZZC  77 h281
M  ZZC  78 h282
M  ZZC  79 h283
M  ZZC  80 h291
M  ZZC  81 h292
M  ZZC  82 h293
M  ZZM   1 7
M  ZZI   1 81
M  ZZM   2 3
M  ZZI   2 121
M  ZZM   3 10
M  ZZI   3 211
M  ZZM   4 1
M  ZZI   4 113
M  ZZM   5 3
M  ZZI   5 121
M  ZZM   6 7
M  ZZI   6 81
M  ZZM   7 10
M  ZZI   7 192
M  ZZM   8 1
M  ZZI   8 113
M  ZZM   9 3
M  ZZI   9 121
M  ZZM  10 7
M  ZZI  10 81
M  ZZM  11 10
M  ZZI  11 211
M  ZZM  12 1
M  ZZI  12 113
M  ZZM  13 37
M  ZZI  13 124
M  ZZM  14 37
M  ZZI  14 124
M  ZZM  15 37
M  ZZI  15 125
M  ZZM  16 37
M  ZZI  16 125
M  ZZM  17 37
M  ZZI  17 125
M  ZZM  18 37
M  ZZI  18 125
M  ZZM  19 1
M  ZZI  19 112
M  ZZM  20 1
M  ZZI  20 112
M  ZZM  21 1
M  ZZI  21 112
M  ZZM  22 1
M  ZZI  22 112
M  ZZM  23 1
M  ZZI  23 113
M  ZZM  24 10
M  ZZI  24 211
M  ZZM  25 3
M  ZZI  25 121
M  ZZM  26 7
M  ZZI  26 81
M  ZZM  27 1
M  ZZI  27 111
M  ZZM  28 1
M  ZZI  28 112
M  ZZM  29 1
M  ZZI  29 113
M  ZZM  30 1
M  ZZI  30 112
M  ZZM  31 1
M  ZZI  31 112
M  ZZM  32 1
M  ZZI  32 112
M  ZZM  33 1
M  ZZI  33 112
M  ZZM  34 1
M  ZZI  34 112
M  ZZM  35 1
M  ZZI  35 113
M  ZZM  36 34
M  ZZI  36 231
M  ZZM  37 1
M  ZZI  37 111
M  ZZM  38 1
M  ZZI  38 111
M  ZZM  39 28
M  ZZI  39 11
M  ZZM  40 5
M  ZZI  40 1
M  ZZM  41 5
M  ZZI  41 1
M  ZZM  42 28
M  ZZI  42 11
M  ZZM  43 5
M  ZZI  43 1
M  ZZM  44 5
M  ZZI  44 1
M  ZZM  45 5
M  ZZI  45 1
M  ZZM  46 5
M  ZZI  46 1
M  ZZM  47 5
M  ZZI  47 1
M  ZZM  48 5
M  ZZI  48 1
M  ZZM  49 5
M  ZZI  49 1
M  ZZM  50 5
M  ZZI  50 1
M  ZZM  51 5
M  ZZI  51 1
M  ZZM  52 5
M  ZZI  52 1
M  ZZM  53 5
M  ZZI  53 1
M  ZZM  54 5
M  ZZI  54 1
M  ZZM  55 5
M  ZZI  55 1
M  ZZM  56 5
M  ZZI  56 1
M  ZZM  57 28
M  ZZI  57 11
M  ZZM  58 5
M  ZZI  58 1
M  ZZM  59 5
M  ZZI  59 1
M  ZZM  60 5
M  ZZI  60 1
M  ZZM  61 5
M  ZZI  61 1
M  ZZM  62 5
M  ZZI  62 1
M  ZZM  63 5
M  ZZI  63 1
M  ZZM  64 5
M  ZZI  64 1
M  ZZM  65 5
M  ZZI  65 1
M  ZZM  66 5
M  ZZI  66 1
M  ZZM  67 5
M  ZZI  67 1
M  ZZM  68 5
M  ZZI  68 1
M  ZZM  69 5
M  ZZI  69 1
M  ZZM  70 5
M  ZZI  70 1
M  ZZM  71 5
M  ZZI  71 1
M  ZZM  72 5
M  ZZI  72 1
M  ZZM  73 5
M  ZZI  73 1
M  ZZM  74 5
M  ZZI  74 1
M  ZZM  75 36
M  ZZI  75 17
M  ZZM  76 36
M  ZZI  76 17
M  ZZM  77 5
M  ZZI  77 1
M  ZZM  78 5
M  ZZI  78 1
M  ZZM  79 5
M  ZZI  79 1
M  ZZM  80 5
M  ZZI  80 1
M  ZZM  81 5
M  ZZI  81 1
M  ZZM  82 5
M  ZZI  82 1
M  CHG  1  36   1
M  END
> <IX>
1

> <NAME>
IAPBIR2_5P9J_20.pdb

> <Score>
-9.250079

> <Natom>
82

> <Nflex>
9

> <Hbond>
-3.600255

> <Hphob>
-6.704822

> <VwInt>
-46.580141

> <Dsolv>
18.018919

> <SolEl>
33.374852

> <Eintl>
16.64891

> <RecConf>
ND

> <projPath>
IAPBIR2_maps/

> <NAME_>
IAPBIR2_5P9J_20.pdb

$$$$
