IAPBIR2_4QNQ_59.pdb
  MOLSOFT 04032206373D

 70 73  0  0  1  0  0  0  0  0999 V2000
   28.1988   28.0470    7.3721 O   0  0  0  0  0  0  0  0  0  0  0  0
   27.4403   27.2357    6.5526 C   0  0  0  0  0  0  0  0  0  0  0  0
   27.1527   25.9573    6.9936 C   0  0  0  0  0  0  0  0  0  0  0  0
   26.3607   25.1219    6.2048 C   0  0  0  0  0  0  0  0  0  0  0  0
   25.9653   23.7301    6.5965 C   0  0  0  0  0  0  0  0  0  0  0  0
   25.6993   22.9440    5.6943 O   0  0  0  0  0  0  0  0  0  0  0  0
   25.8531   23.3361    7.9964 C   0  0  0  0  0  0  0  0  0  0  0  0
   26.2623   24.1408    9.0366 N   0  0  0  0  0  0  0  0  0  0  0  0
   26.0536   23.5678   10.2041 C   0  0  0  0  0  0  0  0  0  0  0  0
   26.4859   24.2029   11.4963 C   0  0  1  0  0  0  0  0  0  0  0  0
   26.1646   23.4174   12.6832 N   0  0  0  0  0  0  0  0  0  0  0  0
   24.8968   23.4639   13.2667 C   0  0  0  0  0  0  0  0  0  0  0  0
   23.9750   24.0644   12.7365 O   0  0  0  0  0  0  0  0  0  0  0  0
   24.7011   22.7765   14.6228 C   0  0  2  0  0  0  0  0  0  0  0  0
   23.2733   22.5219   14.8196 N   0  0  0  0  0  0  0  0  0  0  0  0
   22.7109   21.2720   14.6448 C   0  0  0  0  0  0  0  0  0  0  0  0
   23.3314   20.3163   14.2007 O   0  0  0  0  0  0  0  0  0  0  0  0
   21.2332   21.1707   15.0369 C   0  0  1  0  0  0  0  0  0  0  0  0
   20.6708   19.8015   14.6989 N   0  3  0  0  0  0  0  0  0  0  0  0
   19.2539   19.5364   15.0892 C   0  0  0  0  0  0  0  0  0  0  0  0
   21.0567   21.4409   16.5325 C   0  0  0  0  0  0  0  0  0  0  0  0
   25.2865   23.5904   15.8004 C   0  0  0  0  0  0  0  0  0  0  0  0
   24.6310   24.9617   16.0094 C   0  0  0  0  0  0  0  0  0  0  0  0
   25.2796   25.7018   17.1705 C   0  0  0  0  0  0  0  0  0  0  0  0
   25.2894   24.8930   18.4559 C   0  0  0  0  0  0  0  0  0  0  0  0
   25.8947   23.5150   18.2546 C   0  0  0  0  0  0  0  0  0  0  0  0
   25.2310   22.7773   17.1003 C   0  0  0  0  0  0  0  0  0  0  0  0
   27.3410   22.7253   13.1833 C   0  0  0  0  0  0  0  0  0  0  0  0
   28.4266   23.0010   12.1619 C   0  0  0  0  0  0  0  0  0  0  0  0
   28.0011   24.3277   11.5657 C   0  0  0  0  0  0  0  0  0  0  0  0
   25.2926   22.0254   10.1115 S   0  0  0  0  0  0  0  0  0  0  0  0
   25.3123   22.1311    8.4063 C   0  0  0  0  0  0  0  0  0  0  0  0
   25.9195   25.5881    4.9652 C   0  0  0  0  0  0  0  0  0  0  0  0
   26.2309   26.8685    4.5338 C   0  0  0  0  0  0  0  0  0  0  0  0
   26.9849   27.7071    5.3335 C   0  0  0  0  0  0  0  0  0  0  0  0
   28.0736   28.9664    7.0736 H   0  0  0  0  0  0  0  0  0  0  0  0
   27.5550   25.6444    7.9491 H   0  0  0  0  0  0  0  0  0  0  0  0
   26.0225   25.1894   11.5726 H   0  0  0  0  0  0  0  0  0  0  0  0
   25.2050   21.8064   14.5721 H   0  0  0  0  0  0  0  0  0  0  0  0
   22.6747   23.3258   14.9799 H   0  0  0  0  0  0  0  0  0  0  0  0
   20.6719   21.8965   14.4414 H   0  0  0  0  0  0  0  0  0  0  0  0
   20.7360   19.6737   13.6793 H   0  0  0  0  0  0  0  0  0  0  0  0
   21.2782   19.0702   15.0930 H   0  0  0  0  0  0  0  0  0  0  0  0
   19.2013   19.4469   16.1766 H   0  0  0  0  0  0  0  0  0  0  0  0
   18.9613   18.5959   14.6165 H   0  0  0  0  0  0  0  0  0  0  0  0
   18.6335   20.3580   14.7276 H   0  0  0  0  0  0  0  0  0  0  0  0
   21.4801   20.6323   17.1357 H   0  0  0  0  0  0  0  0  0  0  0  0
   19.9996   21.5463   16.7948 H   0  0  0  0  0  0  0  0  0  0  0  0
   21.5580   22.3607   16.8425 H   0  0  0  0  0  0  0  0  0  0  0  0
   26.3397   23.7882   15.5912 H   0  0  0  0  0  0  0  0  0  0  0  0
   24.7164   25.5757   15.1096 H   0  0  0  0  0  0  0  0  0  0  0  0
   23.5615   24.8599   16.2092 H   0  0  0  0  0  0  0  0  0  0  0  0
   26.3034   25.9828   16.9025 H   0  0  0  0  0  0  0  0  0  0  0  0
   24.7369   26.6236   17.3554 H   0  0  0  0  0  0  0  0  0  0  0  0
   25.8434   25.4340   19.2279 H   0  0  0  0  0  0  0  0  0  0  0  0
   24.2655   24.7877   18.8263 H   0  0  0  0  0  0  0  0  0  0  0  0
   26.9677   23.6133   18.0580 H   0  0  0  0  0  0  0  0  0  0  0  0
   25.7944   22.9318   19.1753 H   0  0  0  0  0  0  0  0  0  0  0  0
   24.1918   22.5578   17.3700 H   0  0  0  0  0  0  0  0  0  0  0  0
   25.7290   21.8120   16.9624 H   0  0  0  0  0  0  0  0  0  0  0  0
   27.6210   23.1428   14.1524 H   0  0  0  0  0  0  0  0  0  0  0  0
   27.1366   21.6571   13.3068 H   0  0  0  0  0  0  0  0  0  0  0  0
   29.4246   23.0349   12.6095 H   0  0  0  0  0  0  0  0  0  0  0  0
   28.4326   22.2216   11.3918 H   0  0  0  0  0  0  0  0  0  0  0  0
   28.4820   24.5319   10.6031 H   0  0  0  0  0  0  0  0  0  0  0  0
   28.2750   25.1346   12.2554 H   0  0  0  0  0  0  0  0  0  0  0  0
   24.9180   21.3269    7.8017 H   0  0  0  0  0  0  0  0  0  0  0  0
   25.3016   24.9650    4.3253 H   0  0  0  0  0  0  0  0  0  0  0  0
   25.8591   27.2241    3.5781 H   0  0  0  0  0  0  0  0  0  0  0  0
   27.2088   28.7160    5.0036 H   0  0  0  0  0  0  0  0  0  0  0  0
  1 36  1  0  0  0  0
  1  2  1  0  0  0  0
  2  3  2  0  0  0  0
  2 35  1  0  0  0  0
  3 37  1  0  0  0  0
  3  4  1  0  0  0  0
  4 33  2  0  0  0  0
  4  5  1  0  0  0  0
  5  6  2  0  0  0  0
  5  7  1  0  0  0  0
  7 32  2  0  0  0  0
  7  8  1  0  0  0  0
  8  9  2  0  0  0  0
  9 31  1  0  0  0  0
 10  9  1  0  0  0  0
 10 38  1  0  0  0  0
 10 30  1  0  0  0  0
 10 11  1  0  0  0  0
 11 28  1  0  0  0  0
 11 12  1  0  0  0  0
 12 13  2  0  0  0  0
 14 12  1  0  0  0  0
 14 39  1  0  0  0  0
 14 15  1  0  0  0  0
 14 22  1  0  0  0  0
 15 40  1  0  0  0  0
 15 16  1  0  0  0  0
 16 17  2  0  0  0  0
 18 16  1  0  0  0  0
 18 41  1  0  0  0  0
 18 21  1  0  0  0  0
 18 19  1  0  0  0  0
 19 42  1  0  0  0  0
 19 43  1  0  0  0  0
 19 20  1  0  0  0  0
 20 44  1  0  0  0  0
 20 45  1  0  0  0  0
 20 46  1  0  0  0  0
 21 47  1  0  0  0  0
 21 48  1  0  0  0  0
 21 49  1  0  0  0  0
 22 50  1  0  0  0  0
 22 23  1  0  0  0  0
 22 27  1  0  0  0  0
 23 51  1  0  0  0  0
 23 52  1  0  0  0  0
 23 24  1  0  0  0  0
 24 53  1  0  0  0  0
 24 54  1  0  0  0  0
 24 25  1  0  0  0  0
 25 55  1  0  0  0  0
 25 56  1  0  0  0  0
 25 26  1  0  0  0  0
 26 57  1  0  0  0  0
 26 58  1  0  0  0  0
 26 27  1  0  0  0  0
 27 59  1  0  0  0  0
 27 60  1  0  0  0  0
 28 29  1  0  0  0  0
 28 61  1  0  0  0  0
 28 62  1  0  0  0  0
 29 30  1  0  0  0  0
 29 63  1  0  0  0  0
 29 64  1  0  0  0  0
 30 65  1  0  0  0  0
 30 66  1  0  0  0  0
 31 32  1  0  0  0  0
 32 67  1  0  0  0  0
 33 68  1  0  0  0  0
 33 34  1  0  0  0  0
 34 69  1  0  0  0  0
 34 35  2  0  0  0  0
 35 70  1  0  0  0  0
M  ZZC   1 o1
M  ZZC   2 c1
M  ZZC   3 c2
M  ZZC   4 c3
M  ZZC   5 c4
M  ZZC   6 o2
M  ZZC   7 c5
M  ZZC   8 n1
M  ZZC   9 c6
M  ZZC  10 c7
M  ZZC  11 n2
M  ZZC  12 c8
M  ZZC  13 o3
M  ZZC  14 c9
M  ZZC  15 n3
M  ZZC  16 c10
M  ZZC  17 o4
M  ZZC  18 c11
M  ZZC  19 n4
M  ZZC  20 c12
M  ZZC  21 c13
M  ZZC  22 c14
M  ZZC  23 c15
M  ZZC  24 c16
M  ZZC  25 c17
M  ZZC  26 c18
M  ZZC  27 c19
M  ZZC  28 c20
M  ZZC  29 c21
M  ZZC  30 c22
M  ZZC  31 s1
M  ZZC  32 c23
M  ZZC  33 c24
M  ZZC  34 c25
M  ZZC  35 c26
M  ZZC  36 h11
M  ZZC  37 h21
M  ZZC  38 h71
M  ZZC  39 h91
M  ZZC  40 h31
M  ZZC  41 h111
M  ZZC  42 h41
M  ZZC  43 h42
M  ZZC  44 h121
M  ZZC  45 h122
M  ZZC  46 h123
M  ZZC  47 h131
M  ZZC  48 h132
M  ZZC  49 h133
M  ZZC  50 h141
M  ZZC  51 h151
M  ZZC  52 h152
M  ZZC  53 h161
M  ZZC  54 h162
M  ZZC  55 h171
M  ZZC  56 h172
M  ZZC  57 h181
M  ZZC  58 h182
M  ZZC  59 h191
M  ZZC  60 h192
M  ZZC  61 h201
M  ZZC  62 h202
M  ZZC  63 h211
M  ZZC  64 h212
M  ZZC  65 h221
M  ZZC  66 h222
M  ZZC  67 h231
M  ZZC  68 h241
M  ZZC  69 h251
M  ZZC  70 h261
M  ZZM   1 6
M  ZZI   1 62
M  ZZM   2 37
M  ZZI   2 124
M  ZZM   3 37
M  ZZI   3 125
M  ZZM   4 37
M  ZZI   4 124
M  ZZM   5 3
M  ZZI   5 122
M  ZZM   6 7
M  ZZI   6 80
M  ZZM   7 64
M  ZZI   7 105
M  ZZM   8 66
M  ZZI   8 222
M  ZZM   9 63
M  ZZI   9 104
M  ZZM  10 1
M  ZZI  10 113
M  ZZM  11 10
M  ZZI  11 192
M  ZZM  12 3
M  ZZI  12 121
M  ZZM  13 7
M  ZZI  13 81
M  ZZM  14 1
M  ZZI  14 113
M  ZZM  15 10
M  ZZI  15 211
M  ZZM  16 3
M  ZZI  16 121
M  ZZM  17 7
M  ZZI  17 81
M  ZZM  18 1
M  ZZI  18 113
M  ZZM  19 34
M  ZZI  19 231
M  ZZM  20 1
M  ZZI  20 111
M  ZZM  21 1
M  ZZI  21 111
M  ZZM  22 1
M  ZZI  22 113
M  ZZM  23 1
M  ZZI  23 112
M  ZZM  24 1
M  ZZI  24 112
M  ZZM  25 1
M  ZZI  25 112
M  ZZM  26 1
M  ZZI  26 112
M  ZZM  27 1
M  ZZI  27 112
M  ZZM  28 1
M  ZZI  28 112
M  ZZM  29 1
M  ZZI  29 112
M  ZZM  30 1
M  ZZI  30 112
M  ZZM  31 44
M  ZZI  31 248
M  ZZM  32 63
M  ZZI  32 104
M  ZZM  33 37
M  ZZI  33 125
M  ZZM  34 37
M  ZZI  34 125
M  ZZM  35 37
M  ZZI  35 125
M  ZZM  36 29
M  ZZI  36 27
M  ZZM  37 5
M  ZZI  37 1
M  ZZM  38 5
M  ZZI  38 1
M  ZZM  39 5
M  ZZI  39 1
M  ZZM  40 28
M  ZZI  40 11
M  ZZM  41 5
M  ZZI  41 1
M  ZZM  42 36
M  ZZI  42 17
M  ZZM  43 36
M  ZZI  43 17
M  ZZM  44 5
M  ZZI  44 1
M  ZZM  45 5
M  ZZI  45 1
M  ZZM  46 5
M  ZZI  46 1
M  ZZM  47 5
M  ZZI  47 1
M  ZZM  48 5
M  ZZI  48 1
M  ZZM  49 5
M  ZZI  49 1
M  ZZM  50 5
M  ZZI  50 1
M  ZZM  51 5
M  ZZI  51 1
M  ZZM  52 5
M  ZZI  52 1
M  ZZM  53 5
M  ZZI  53 1
M  ZZM  54 5
M  ZZI  54 1
M  ZZM  55 5
M  ZZI  55 1
M  ZZM  56 5
M  ZZI  56 1
M  ZZM  57 5
M  ZZI  57 1
M  ZZM  58 5
M  ZZI  58 1
M  ZZM  59 5
M  ZZI  59 1
M  ZZM  60 5
M  ZZI  60 1
M  ZZM  61 5
M  ZZI  61 1
M  ZZM  62 5
M  ZZI  62 1
M  ZZM  63 5
M  ZZI  63 1
M  ZZM  64 5
M  ZZI  64 1
M  ZZM  65 5
M  ZZI  65 1
M  ZZM  66 5
M  ZZI  66 1
M  ZZM  67 5
M  ZZI  67 1
M  ZZM  68 5
M  ZZI  68 1
M  ZZM  69 5
M  ZZI  69 1
M  ZZM  70 5
M  ZZI  70 1
M  CHG  1  19   1
M  END
> <IX>
1

> <NAME>
IAPBIR2_4QNQ_59.pdb

> <Score>
-16.481456

> <Natom>
70

> <Nflex>
7

> <Hbond>
-3.387641

> <Hphob>
-5.235246

> <VwInt>
-51.740393

> <Dsolv>
16.409397

> <SolEl>
39.142171

> <Eintl>
8.327337

> <RecConf>
ND

> <projPath>
IAPBIR2_maps/

> <NAME_>
IAPBIR2_4QNQ_59.pdb

$$$$
