IAPBIR2_5UIU_6.pdb
  MOLSOFT 04032206403D

 82 85  0  0  1  0  0  0  0  0999 V2000
   14.6615   50.5095   15.4341 O   0  0  0  0  0  0  0  0  0  0  0  0
   14.9459   49.3366   15.6303 C   0  0  0  0  0  0  0  0  0  0  0  0
   14.2048   48.4774   16.4185 N   0  0  0  0  0  0  0  0  0  0  0  0
   13.1011   48.9443   17.2630 C   0  0  2  0  0  0  0  0  0  0  0  0
   13.2263   48.1441   18.5647 C   0  0  0  0  0  0  0  0  0  0  0  0
   12.6011   47.1091   18.7084 O   0  0  0  0  0  0  0  0  0  0  0  0
   14.1284   48.5645   19.5414 N   0  0  0  0  0  0  0  0  0  0  0  0
   14.4269   47.7196   20.7018 C   0  0  2  0  0  0  0  0  0  0  0  0
   13.2021   47.5026   21.6113 C   0  0  0  0  0  0  0  0  0  0  0  0
   12.6063   48.4417   22.1212 O   0  0  0  0  0  0  0  0  0  0  0  0
   12.8122   46.1736   21.7763 N   0  0  0  0  0  0  0  0  0  0  0  0
   11.6251   45.7991   22.5481 C   0  0  1  0  0  0  0  0  0  0  0  0
   10.4595   45.3048   21.7135 C   0  0  0  0  0  0  0  0  0  0  0  0
    9.4740   44.4826   22.2803 C   0  0  0  0  0  0  0  0  0  0  0  0
    8.3592   44.1328   21.5279 C   0  0  0  0  0  0  0  0  0  0  0  0
    8.2212   44.5419   20.2156 C   0  0  0  0  0  0  0  0  0  0  0  0
    9.1953   45.3282   19.6436 C   0  0  0  0  0  0  0  0  0  0  0  0
   10.2819   45.7210   20.3974 C   0  0  0  0  0  0  0  0  0  0  0  0
    9.5926   43.9148   23.6714 C   0  0  0  0  0  0  0  0  0  0  0  0
   10.7120   44.5468   24.4798 C   0  0  0  0  0  0  0  0  0  0  0  0
   11.9441   44.7569   23.6170 C   0  0  0  0  0  0  0  0  0  0  0  0
   15.5221   48.4879   21.4426 C   0  0  0  0  0  0  0  0  0  0  0  0
   16.1845   49.3436   20.3764 C   0  0  2  0  0  0  0  0  0  0  0  0
   16.9335   50.5032   20.8575 N   0  0  0  0  0  0  0  0  0  0  0  0
   17.8150   50.4685   21.9230 C   0  0  0  0  0  0  0  0  0  0  0  0
   17.9556   49.5448   22.7073 O   0  0  0  0  0  0  0  0  0  0  0  0
   18.6599   51.7039   22.0456 C   0  0  0  0  0  0  0  0  0  0  0  0
   15.0134   49.7141   19.4828 C   0  0  0  0  0  0  0  0  0  0  0  0
   11.7028   48.7763   16.6018 C   0  0  0  0  0  0  0  0  0  0  0  0
   11.5055   49.7886   15.4650 C   0  0  0  0  0  0  0  0  0  0  0  0
   10.1224   49.6873   14.8354 C   0  0  0  0  0  0  0  0  0  0  0  0
    9.8448   48.2828   14.3224 C   0  0  0  0  0  0  0  0  0  0  0  0
   10.0300   47.2501   15.4217 C   0  0  0  0  0  0  0  0  0  0  0  0
   11.3992   47.3611   16.0779 C   0  0  0  0  0  0  0  0  0  0  0  0
   16.2210   48.7174   15.0645 C   0  0  1  0  0  0  0  0  0  0  0  0
   16.5407   49.2199   13.6744 N   0  3  0  0  0  0  0  0  0  0  0  0
   15.6407   48.6841   12.6158 C   0  0  0  0  0  0  0  0  0  0  0  0
   17.3574   49.1218   15.9890 C   0  0  0  0  0  0  0  0  0  0  0  0
   14.4597   47.4973   16.4726 H   0  0  0  0  0  0  0  0  0  0  0  0
   13.2531   50.0039   17.4937 H   0  0  0  0  0  0  0  0  0  0  0  0
   14.8036   46.7617   20.3258 H   0  0  0  0  0  0  0  0  0  0  0  0
   13.3129   45.4416   21.2870 H   0  0  0  0  0  0  0  0  0  0  0  0
   11.2772   46.7057   23.0554 H   0  0  0  0  0  0  0  0  0  0  0  0
    7.5840   43.5167   21.9743 H   0  0  0  0  0  0  0  0  0  0  0  0
    7.3513   44.2482   19.6372 H   0  0  0  0  0  0  0  0  0  0  0  0
    9.0983   45.6587   18.6143 H   0  0  0  0  0  0  0  0  0  0  0  0
   10.9959   46.3860   19.9393 H   0  0  0  0  0  0  0  0  0  0  0  0
    8.6488   44.0327   24.2141 H   0  0  0  0  0  0  0  0  0  0  0  0
    9.7752   42.8394   23.5850 H   0  0  0  0  0  0  0  0  0  0  0  0
   10.3765   45.5100   24.8790 H   0  0  0  0  0  0  0  0  0  0  0  0
   10.9447   43.9314   25.3518 H   0  0  0  0  0  0  0  0  0  0  0  0
   12.2759   43.8128   23.1712 H   0  0  0  0  0  0  0  0  0  0  0  0
   12.7591   45.0863   24.2527 H   0  0  0  0  0  0  0  0  0  0  0  0
   15.1110   49.1134   22.2431 H   0  0  0  0  0  0  0  0  0  0  0  0
   16.2451   47.8127   21.9016 H   0  0  0  0  0  0  0  0  0  0  0  0
   16.8843   48.7239   19.8060 H   0  0  0  0  0  0  0  0  0  0  0  0
   16.9627   51.3225   20.2615 H   0  0  0  0  0  0  0  0  0  0  0  0
   19.5696   51.5716   21.4518 H   0  0  0  0  0  0  0  0  0  0  0  0
   18.9335   51.8547   23.0938 H   0  0  0  0  0  0  0  0  0  0  0  0
   18.1170   52.5880   21.6986 H   0  0  0  0  0  0  0  0  0  0  0  0
   15.3357   49.9413   18.4638 H   0  0  0  0  0  0  0  0  0  0  0  0
   14.4625   50.5796   19.8678 H   0  0  0  0  0  0  0  0  0  0  0  0
   10.9546   49.0007   17.3715 H   0  0  0  0  0  0  0  0  0  0  0  0
   11.6543   50.8072   15.8381 H   0  0  0  0  0  0  0  0  0  0  0  0
   12.2520   49.6279   14.6803 H   0  0  0  0  0  0  0  0  0  0  0  0
    9.3616   49.9674   15.5721 H   0  0  0  0  0  0  0  0  0  0  0  0
   10.0402   50.4017   14.0102 H   0  0  0  0  0  0  0  0  0  0  0  0
    8.8263   48.2240   13.9264 H   0  0  0  0  0  0  0  0  0  0  0  0
   10.5197   48.0600   13.4900 H   0  0  0  0  0  0  0  0  0  0  0  0
    9.2526   47.3819   16.1818 H   0  0  0  0  0  0  0  0  0  0  0  0
    9.8957   46.2434   15.0117 H   0  0  0  0  0  0  0  0  0  0  0  0
   12.1653   47.0769   15.3571 H   0  0  0  0  0  0  0  0  0  0  0  0
   11.4280   46.6184   16.8763 H   0  0  0  0  0  0  0  0  0  0  0  0
   16.1452   47.6254   15.0071 H   0  0  0  0  0  0  0  0  0  0  0  0
   16.5164   50.2500   13.6639 H   0  0  0  0  0  0  0  0  0  0  0  0
   17.5085   48.9653   13.4311 H   0  0  0  0  0  0  0  0  0  0  0  0
   15.9970   49.0649   11.6552 H   0  0  0  0  0  0  0  0  0  0  0  0
   14.6228   49.0311   12.8119 H   0  0  0  0  0  0  0  0  0  0  0  0
   15.7006   47.5936   12.6488 H   0  0  0  0  0  0  0  0  0  0  0  0
   18.3081   48.7455   15.6032 H   0  0  0  0  0  0  0  0  0  0  0  0
   17.2187   48.7303   16.9976 H   0  0  0  0  0  0  0  0  0  0  0  0
   17.4449   50.2101   16.0607 H   0  0  0  0  0  0  0  0  0  0  0  0
  1  2  2  0  0  0  0
  2  3  1  0  0  0  0
 35  2  1  0  0  0  0
  4  3  1  0  0  0  0
  3 39  1  0  0  0  0
  4  5  1  0  0  0  0
  4 40  1  0  0  0  0
  4 29  1  0  0  0  0
  5  7  1  0  0  0  0
  5  6  2  0  0  0  0
  7 28  1  0  0  0  0
  8  7  1  0  0  0  0
  8  9  1  0  0  0  0
  8 41  1  0  0  0  0
  8 22  1  0  0  0  0
  9 11  1  0  0  0  0
  9 10  2  0  0  0  0
 12 11  1  0  0  0  0
 11 42  1  0  0  0  0
 12 13  1  0  0  0  0
 12 43  1  0  0  0  0
 12 21  1  0  0  0  0
 13 18  1  0  0  0  0
 13 14  2  0  0  0  0
 14 19  1  0  0  0  0
 14 15  1  0  0  0  0
 15 44  1  0  0  0  0
 15 16  2  0  0  0  0
 16 45  1  0  0  0  0
 16 17  1  0  0  0  0
 17 46  1  0  0  0  0
 17 18  2  0  0  0  0
 18 47  1  0  0  0  0
 19 20  1  0  0  0  0
 19 48  1  0  0  0  0
 19 49  1  0  0  0  0
 20 21  1  0  0  0  0
 20 50  1  0  0  0  0
 20 51  1  0  0  0  0
 21 52  1  0  0  0  0
 21 53  1  0  0  0  0
 22 54  1  0  0  0  0
 22 55  1  0  0  0  0
 23 22  1  0  0  0  0
 23 56  1  0  0  0  0
 23 24  1  0  0  0  0
 23 28  1  0  0  0  0
 24 57  1  0  0  0  0
 24 25  1  0  0  0  0
 25 26  2  0  0  0  0
 25 27  1  0  0  0  0
 27 58  1  0  0  0  0
 27 59  1  0  0  0  0
 27 60  1  0  0  0  0
 28 61  1  0  0  0  0
 28 62  1  0  0  0  0
 29 63  1  0  0  0  0
 29 30  1  0  0  0  0
 29 34  1  0  0  0  0
 30 64  1  0  0  0  0
 30 65  1  0  0  0  0
 30 31  1  0  0  0  0
 31 66  1  0  0  0  0
 31 67  1  0  0  0  0
 31 32  1  0  0  0  0
 32 68  1  0  0  0  0
 32 69  1  0  0  0  0
 32 33  1  0  0  0  0
 33 70  1  0  0  0  0
 33 71  1  0  0  0  0
 33 34  1  0  0  0  0
 34 72  1  0  0  0  0
 34 73  1  0  0  0  0
 35 74  1  0  0  0  0
 35 38  1  0  0  0  0
 35 36  1  0  0  0  0
 36 75  1  0  0  0  0
 36 76  1  0  0  0  0
 36 37  1  0  0  0  0
 37 77  1  0  0  0  0
 37 78  1  0  0  0  0
 37 79  1  0  0  0  0
 38 80  1  0  0  0  0
 38 81  1  0  0  0  0
 38 82  1  0  0  0  0
M  ZZC   1 o1
M  ZZC   2 c1
M  ZZC   3 n1
M  ZZC   4 c2
M  ZZC   5 c3
M  ZZC   6 o2
M  ZZC   7 n2
M  ZZC   8 c4
M  ZZC   9 c5
M  ZZC  10 o3
M  ZZC  11 n3
M  ZZC  12 c6
M  ZZC  13 c7
M  ZZC  14 c8
M  ZZC  15 c9
M  ZZC  16 c10
M  ZZC  17 c11
M  ZZC  18 c12
M  ZZC  19 c13
M  ZZC  20 c14
M  ZZC  21 c15
M  ZZC  22 c16
M  ZZC  23 c17
M  ZZC  24 n4
M  ZZC  25 c18
M  ZZC  26 o4
M  ZZC  27 c19
M  ZZC  28 c20
M  ZZC  29 c21
M  ZZC  30 c22
M  ZZC  31 c23
M  ZZC  32 c24
M  ZZC  33 c25
M  ZZC  34 c26
M  ZZC  35 c27
M  ZZC  36 n5
M  ZZC  37 c28
M  ZZC  38 c29
M  ZZC  39 h11
M  ZZC  40 h21
M  ZZC  41 h41
M  ZZC  42 h31
M  ZZC  43 h61
M  ZZC  44 h91
M  ZZC  45 h101
M  ZZC  46 h111
M  ZZC  47 h121
M  ZZC  48 h131
M  ZZC  49 h132
M  ZZC  50 h141
M  ZZC  51 h142
M  ZZC  52 h151
M  ZZC  53 h152
M  ZZC  54 h161
M  ZZC  55 h162
M  ZZC  56 h171
M  ZZC  57 h01
M  ZZC  58 h191
M  ZZC  59 h192
M  ZZC  60 h193
M  ZZC  61 h201
M  ZZC  62 h202
M  ZZC  63 h211
M  ZZC  64 h221
M  ZZC  65 h222
M  ZZC  66 h231
M  ZZC  67 h232
M  ZZC  68 h241
M  ZZC  69 h242
M  ZZC  70 h251
M  ZZC  71 h252
M  ZZC  72 h261
M  ZZC  73 h262
M  ZZC  74 h271
M  ZZC  75 h51
M  ZZC  76 h52
M  ZZC  77 h281
M  ZZC  78 h282
M  ZZC  79 h283
M  ZZC  80 h291
M  ZZC  81 h292
M  ZZC  82 h293
M  ZZM   1 7
M  ZZI   1 81
M  ZZM   2 3
M  ZZI   2 121
M  ZZM   3 10
M  ZZI   3 211
M  ZZM   4 1
M  ZZI   4 113
M  ZZM   5 3
M  ZZI   5 121
M  ZZM   6 7
M  ZZI   6 81
M  ZZM   7 10
M  ZZI   7 192
M  ZZM   8 1
M  ZZI   8 113
M  ZZM   9 3
M  ZZI   9 121
M  ZZM  10 7
M  ZZI  10 81
M  ZZM  11 10
M  ZZI  11 211
M  ZZM  12 1
M  ZZI  12 113
M  ZZM  13 37
M  ZZI  13 124
M  ZZM  14 37
M  ZZI  14 124
M  ZZM  15 37
M  ZZI  15 125
M  ZZM  16 37
M  ZZI  16 125
M  ZZM  17 37
M  ZZI  17 125
M  ZZM  18 37
M  ZZI  18 125
M  ZZM  19 1
M  ZZI  19 112
M  ZZM  20 1
M  ZZI  20 112
M  ZZM  21 1
M  ZZI  21 112
M  ZZM  22 1
M  ZZI  22 112
M  ZZM  23 1
M  ZZI  23 113
M  ZZM  24 10
M  ZZI  24 211
M  ZZM  25 3
M  ZZI  25 121
M  ZZM  26 7
M  ZZI  26 81
M  ZZM  27 1
M  ZZI  27 111
M  ZZM  28 1
M  ZZI  28 112
M  ZZM  29 1
M  ZZI  29 113
M  ZZM  30 1
M  ZZI  30 112
M  ZZM  31 1
M  ZZI  31 112
M  ZZM  32 1
M  ZZI  32 112
M  ZZM  33 1
M  ZZI  33 112
M  ZZM  34 1
M  ZZI  34 112
M  ZZM  35 1
M  ZZI  35 113
M  ZZM  36 34
M  ZZI  36 231
M  ZZM  37 1
M  ZZI  37 111
M  ZZM  38 1
M  ZZI  38 111
M  ZZM  39 28
M  ZZI  39 11
M  ZZM  40 5
M  ZZI  40 1
M  ZZM  41 5
M  ZZI  41 1
M  ZZM  42 28
M  ZZI  42 11
M  ZZM  43 5
M  ZZI  43 1
M  ZZM  44 5
M  ZZI  44 1
M  ZZM  45 5
M  ZZI  45 1
M  ZZM  46 5
M  ZZI  46 1
M  ZZM  47 5
M  ZZI  47 1
M  ZZM  48 5
M  ZZI  48 1
M  ZZM  49 5
M  ZZI  49 1
M  ZZM  50 5
M  ZZI  50 1
M  ZZM  51 5
M  ZZI  51 1
M  ZZM  52 5
M  ZZI  52 1
M  ZZM  53 5
M  ZZI  53 1
M  ZZM  54 5
M  ZZI  54 1
M  ZZM  55 5
M  ZZI  55 1
M  ZZM  56 5
M  ZZI  56 1
M  ZZM  57 28
M  ZZI  57 11
M  ZZM  58 5
M  ZZI  58 1
M  ZZM  59 5
M  ZZI  59 1
M  ZZM  60 5
M  ZZI  60 1
M  ZZM  61 5
M  ZZI  61 1
M  ZZM  62 5
M  ZZI  62 1
M  ZZM  63 5
M  ZZI  63 1
M  ZZM  64 5
M  ZZI  64 1
M  ZZM  65 5
M  ZZI  65 1
M  ZZM  66 5
M  ZZI  66 1
M  ZZM  67 5
M  ZZI  67 1
M  ZZM  68 5
M  ZZI  68 1
M  ZZM  69 5
M  ZZI  69 1
M  ZZM  70 5
M  ZZI  70 1
M  ZZM  71 5
M  ZZI  71 1
M  ZZM  72 5
M  ZZI  72 1
M  ZZM  73 5
M  ZZI  73 1
M  ZZM  74 5
M  ZZI  74 1
M  ZZM  75 36
M  ZZI  75 17
M  ZZM  76 36
M  ZZI  76 17
M  ZZM  77 5
M  ZZI  77 1
M  ZZM  78 5
M  ZZI  78 1
M  ZZM  79 5
M  ZZI  79 1
M  ZZM  80 5
M  ZZI  80 1
M  ZZM  81 5
M  ZZI  81 1
M  ZZM  82 5
M  ZZI  82 1
M  CHG  1  36   1
M  END
> <IX>
1

> <NAME>
IAPBIR2_5UIU_6.pdb

> <Score>
-18.830401

> <Natom>
82

> <Nflex>
9

> <Hbond>
-5.416226

> <Hphob>
-6.608782

> <VwInt>
-57.19538

> <Dsolv>
18.984609

> <SolEl>
36.195658

> <Eintl>
21.613872

> <RecConf>
ND

> <projPath>
IAPBIR2_maps/

> <NAME_>
IAPBIR2_5UIU_6.pdb

$$$$
