IAPBIR2_3KRR_4.pdb
  MOLSOFT 04032206393D

 82 85  0  0  1  0  0  0  0  0999 V2000
   28.1298   26.5524   17.9211 C   0  0  0  0  0  0  0  0  0  0  0  0
   26.7229   26.1078   18.2060 C   0  0  0  0  0  0  0  0  0  0  0  0
   26.1778   26.3319   19.2766 O   0  0  0  0  0  0  0  0  0  0  0  0
   26.1538   25.4398   17.1415 N   0  0  0  0  0  0  0  0  0  0  0  0
   24.7450   25.0810   17.0938 C   0  0  2  0  0  0  0  0  0  0  0  0
   24.4976   23.5725   17.1706 C   0  0  0  0  0  0  0  0  0  0  0  0
   23.9922   23.1839   15.8611 N   0  0  0  0  0  0  0  0  0  0  0  0
   23.4462   21.9714   15.4499 C   0  0  0  0  0  0  0  0  0  0  0  0
   23.4318   21.6814   14.2607 O   0  0  0  0  0  0  0  0  0  0  0  0
   22.9595   20.9725   16.5156 C   0  0  1  0  0  0  0  0  0  0  0  0
   22.1855   21.6277   17.5813 N   0  0  0  0  0  0  0  0  0  0  0  0
   22.1478   21.1551   18.8854 C   0  0  0  0  0  0  0  0  0  0  0  0
   22.7917   20.1927   19.2766 O   0  0  0  0  0  0  0  0  0  0  0  0
   21.1907   21.9110   19.8160 C   0  0  1  0  0  0  0  0  0  0  0  0
   19.9235   21.1282   20.1072 N   0  3  0  0  0  0  0  0  0  0  0  0
   19.0362   20.8695   18.9328 C   0  0  0  0  0  0  0  0  0  0  0  0
   21.8781   22.2038   21.1432 C   0  0  0  0  0  0  0  0  0  0  0  0
   22.1369   19.8603   15.8156 C   0  0  0  0  0  0  0  0  0  0  0  0
   21.9866   18.6025   16.6776 C   0  0  0  0  0  0  0  0  0  0  0  0
   21.2434   17.5096   15.9273 C   0  0  0  0  0  0  0  0  0  0  0  0
   19.8758   17.9994   15.4885 C   0  0  0  0  0  0  0  0  0  0  0  0
   19.9635   19.2626   14.6524 C   0  0  0  0  0  0  0  0  0  0  0  0
   20.7628   20.3618   15.3330 C   0  0  0  0  0  0  0  0  0  0  0  0
   24.1724   24.2476   14.8955 C   0  0  2  0  0  0  0  0  0  0  0  0
   25.4955   24.0760   14.1433 C   0  0  0  0  0  0  0  0  0  0  0  0
   26.5806   24.1039   14.7098 O   0  0  0  0  0  0  0  0  0  0  0  0
   25.3429   23.8726   12.7812 N   0  0  0  0  0  0  0  0  0  0  0  0
   26.4851   23.6762   11.8949 C   0  0  1  0  0  0  0  0  0  0  0  0
   26.0716   23.2435   10.5003 C   0  0  0  0  0  0  0  0  0  0  0  0
   26.6971   23.7501    9.3493 C   0  0  0  0  0  0  0  0  0  0  0  0
   26.3034   23.3105    8.0914 C   0  0  0  0  0  0  0  0  0  0  0  0
   25.3452   22.3307    7.9562 C   0  0  0  0  0  0  0  0  0  0  0  0
   24.7556   21.8013    9.0822 C   0  0  0  0  0  0  0  0  0  0  0  0
   25.1087   22.2505   10.3375 C   0  0  0  0  0  0  0  0  0  0  0  0
   27.7863   24.7822    9.4229 C   0  0  0  0  0  0  0  0  0  0  0  0
   28.4334   24.8094   10.7943 C   0  0  0  0  0  0  0  0  0  0  0  0
   27.3597   24.9318   11.8587 C   0  0  0  0  0  0  0  0  0  0  0  0
   24.1539   25.4952   15.7550 C   0  0  0  0  0  0  0  0  0  0  0  0
   28.1592   27.1160   16.9826 H   0  0  0  0  0  0  0  0  0  0  0  0
   28.7854   25.6798   17.8453 H   0  0  0  0  0  0  0  0  0  0  0  0
   28.4816   27.2003   18.7297 H   0  0  0  0  0  0  0  0  0  0  0  0
   26.7317   25.1915   16.3393 H   0  0  0  0  0  0  0  0  0  0  0  0
   24.2406   25.6018   17.9136 H   0  0  0  0  0  0  0  0  0  0  0  0
   25.4085   23.0008   17.3761 H   0  0  0  0  0  0  0  0  0  0  0  0
   23.7818   23.3286   17.9525 H   0  0  0  0  0  0  0  0  0  0  0  0
   23.8581   20.5371   16.9667 H   0  0  0  0  0  0  0  0  0  0  0  0
   21.7097   22.4923   17.3476 H   0  0  0  0  0  0  0  0  0  0  0  0
   20.8763   22.8533   19.3667 H   0  0  0  0  0  0  0  0  0  0  0  0
   20.1595   20.2319   20.5552 H   0  0  0  0  0  0  0  0  0  0  0  0
   19.3632   21.6375   20.8057 H   0  0  0  0  0  0  0  0  0  0  0  0
   18.1050   20.4420   19.3097 H   0  0  0  0  0  0  0  0  0  0  0  0
   19.5327   20.1541   18.2760 H   0  0  0  0  0  0  0  0  0  0  0  0
   18.8375   21.8139   18.4209 H   0  0  0  0  0  0  0  0  0  0  0  0
   22.1786   21.2859   21.6577 H   0  0  0  0  0  0  0  0  0  0  0  0
   21.2164   22.7586   21.8130 H   0  0  0  0  0  0  0  0  0  0  0  0
   22.7795   22.8043   20.9850 H   0  0  0  0  0  0  0  0  0  0  0  0
   22.6926   19.5391   14.9269 H   0  0  0  0  0  0  0  0  0  0  0  0
   22.9717   18.2294   16.9762 H   0  0  0  0  0  0  0  0  0  0  0  0
   21.4365   18.8226   17.5962 H   0  0  0  0  0  0  0  0  0  0  0  0
   21.8236   17.1954   15.0526 H   0  0  0  0  0  0  0  0  0  0  0  0
   21.1308   16.6298   16.5686 H   0  0  0  0  0  0  0  0  0  0  0  0
   19.3706   17.2164   14.9152 H   0  0  0  0  0  0  0  0  0  0  0  0
   19.2698   18.2009   16.3768 H   0  0  0  0  0  0  0  0  0  0  0  0
   20.4269   19.0209   13.6905 H   0  0  0  0  0  0  0  0  0  0  0  0
   18.9524   19.6266   14.4482 H   0  0  0  0  0  0  0  0  0  0  0  0
   20.1738   20.7521   16.1672 H   0  0  0  0  0  0  0  0  0  0  0  0
   20.8769   21.1957   14.6333 H   0  0  0  0  0  0  0  0  0  0  0  0
   23.3390   24.2509   14.1820 H   0  0  0  0  0  0  0  0  0  0  0  0
   24.4096   23.7505   12.3998 H   0  0  0  0  0  0  0  0  0  0  0  0
   27.0799   22.8615   12.3254 H   0  0  0  0  0  0  0  0  0  0  0  0
   26.7613   23.7240    7.1980 H   0  0  0  0  0  0  0  0  0  0  0  0
   25.0645   21.9747    6.9702 H   0  0  0  0  0  0  0  0  0  0  0  0
   24.0157   21.0218    8.9791 H   0  0  0  0  0  0  0  0  0  0  0  0
   24.6315   21.7962   11.2003 H   0  0  0  0  0  0  0  0  0  0  0  0
   28.5572   24.5731    8.6737 H   0  0  0  0  0  0  0  0  0  0  0  0
   27.3592   25.7623    9.1857 H   0  0  0  0  0  0  0  0  0  0  0  0
   29.0195   23.8981   10.9594 H   0  0  0  0  0  0  0  0  0  0  0  0
   29.1347   25.6462   10.8548 H   0  0  0  0  0  0  0  0  0  0  0  0
   26.7391   25.8121   11.6633 H   0  0  0  0  0  0  0  0  0  0  0  0
   27.8353   25.1050   12.8282 H   0  0  0  0  0  0  0  0  0  0  0  0
   23.1130   25.7876   15.8944 H   0  0  0  0  0  0  0  0  0  0  0  0
   24.6869   26.3359   15.3134 H   0  0  0  0  0  0  0  0  0  0  0  0
  1 39  1  0  0  0  0
  1 40  1  0  0  0  0
  1 41  1  0  0  0  0
  1  2  1  0  0  0  0
  2  3  2  0  0  0  0
  2  4  1  0  0  0  0
  4 42  1  0  0  0  0
  5  4  1  0  0  0  0
  5 43  1  0  0  0  0
  5 38  1  0  0  0  0
  5  6  1  0  0  0  0
  6  7  1  0  0  0  0
  6 44  1  0  0  0  0
  6 45  1  0  0  0  0
 24  7  1  0  0  0  0
  7  8  1  0  0  0  0
  8  9  2  0  0  0  0
 10  8  1  0  0  0  0
 10 46  1  0  0  0  0
 10 11  1  0  0  0  0
 10 18  1  0  0  0  0
 11 47  1  0  0  0  0
 11 12  1  0  0  0  0
 12 13  2  0  0  0  0
 14 12  1  0  0  0  0
 14 48  1  0  0  0  0
 14 17  1  0  0  0  0
 14 15  1  0  0  0  0
 15 49  1  0  0  0  0
 15 50  1  0  0  0  0
 15 16  1  0  0  0  0
 16 51  1  0  0  0  0
 16 52  1  0  0  0  0
 16 53  1  0  0  0  0
 17 54  1  0  0  0  0
 17 55  1  0  0  0  0
 17 56  1  0  0  0  0
 18 57  1  0  0  0  0
 18 19  1  0  0  0  0
 18 23  1  0  0  0  0
 19 58  1  0  0  0  0
 19 59  1  0  0  0  0
 19 20  1  0  0  0  0
 20 60  1  0  0  0  0
 20 61  1  0  0  0  0
 20 21  1  0  0  0  0
 21 62  1  0  0  0  0
 21 63  1  0  0  0  0
 21 22  1  0  0  0  0
 22 64  1  0  0  0  0
 22 65  1  0  0  0  0
 22 23  1  0  0  0  0
 23 66  1  0  0  0  0
 23 67  1  0  0  0  0
 24 38  1  0  0  0  0
 24 68  1  0  0  0  0
 24 25  1  0  0  0  0
 25 26  2  0  0  0  0
 25 27  1  0  0  0  0
 27 69  1  0  0  0  0
 28 27  1  0  0  0  0
 28 70  1  0  0  0  0
 28 29  1  0  0  0  0
 28 37  1  0  0  0  0
 29 30  2  0  0  0  0
 29 34  1  0  0  0  0
 30 35  1  0  0  0  0
 30 31  1  0  0  0  0
 31 71  1  0  0  0  0
 31 32  2  0  0  0  0
 32 72  1  0  0  0  0
 32 33  1  0  0  0  0
 33 73  1  0  0  0  0
 33 34  2  0  0  0  0
 34 74  1  0  0  0  0
 35 75  1  0  0  0  0
 35 76  1  0  0  0  0
 35 36  1  0  0  0  0
 36 77  1  0  0  0  0
 36 78  1  0  0  0  0
 36 37  1  0  0  0  0
 37 79  1  0  0  0  0
 37 80  1  0  0  0  0
 38 81  1  0  0  0  0
 38 82  1  0  0  0  0
M  ZZC   1 c1
M  ZZC   2 c2
M  ZZC   3 o1
M  ZZC   4 n1
M  ZZC   5 c3
M  ZZC   6 c4
M  ZZC   7 n2
M  ZZC   8 c5
M  ZZC   9 o2
M  ZZC  10 c6
M  ZZC  11 n3
M  ZZC  12 c7
M  ZZC  13 o3
M  ZZC  14 c8
M  ZZC  15 n4
M  ZZC  16 c9
M  ZZC  17 c10
M  ZZC  18 c11
M  ZZC  19 c12
M  ZZC  20 c13
M  ZZC  21 c14
M  ZZC  22 c15
M  ZZC  23 c16
M  ZZC  24 c17
M  ZZC  25 c18
M  ZZC  26 o4
M  ZZC  27 n5
M  ZZC  28 c19
M  ZZC  29 c20
M  ZZC  30 c21
M  ZZC  31 c22
M  ZZC  32 c23
M  ZZC  33 c24
M  ZZC  34 c25
M  ZZC  35 c26
M  ZZC  36 c27
M  ZZC  37 c28
M  ZZC  38 c29
M  ZZC  39 h11
M  ZZC  40 h12
M  ZZC  41 h13
M  ZZC  42 h01
M  ZZC  43 h31
M  ZZC  44 h41
M  ZZC  45 h42
M  ZZC  46 h61
M  ZZC  47 h02
M  ZZC  48 h81
M  ZZC  49 h03
M  ZZC  50 h04
M  ZZC  51 h91
M  ZZC  52 h92
M  ZZC  53 h93
M  ZZC  54 h101
M  ZZC  55 h102
M  ZZC  56 h103
M  ZZC  57 h111
M  ZZC  58 h121
M  ZZC  59 h122
M  ZZC  60 h131
M  ZZC  61 h132
M  ZZC  62 h141
M  ZZC  63 h142
M  ZZC  64 h151
M  ZZC  65 h152
M  ZZC  66 h161
M  ZZC  67 h162
M  ZZC  68 h171
M  ZZC  69 h51
M  ZZC  70 h191
M  ZZC  71 h221
M  ZZC  72 h231
M  ZZC  73 h241
M  ZZC  74 h251
M  ZZC  75 h261
M  ZZC  76 h262
M  ZZC  77 h271
M  ZZC  78 h272
M  ZZC  79 h281
M  ZZC  80 h282
M  ZZC  81 h291
M  ZZC  82 h292
M  ZZM   1 1
M  ZZI   1 111
M  ZZM   2 3
M  ZZI   2 121
M  ZZM   3 7
M  ZZI   3 81
M  ZZM   4 10
M  ZZI   4 211
M  ZZM   5 1
M  ZZI   5 113
M  ZZM   6 1
M  ZZI   6 112
M  ZZM   7 10
M  ZZI   7 192
M  ZZM   8 3
M  ZZI   8 121
M  ZZM   9 7
M  ZZI   9 81
M  ZZM  10 1
M  ZZI  10 113
M  ZZM  11 10
M  ZZI  11 211
M  ZZM  12 3
M  ZZI  12 121
M  ZZM  13 7
M  ZZI  13 81
M  ZZM  14 1
M  ZZI  14 113
M  ZZM  15 34
M  ZZI  15 231
M  ZZM  16 1
M  ZZI  16 111
M  ZZM  17 1
M  ZZI  17 111
M  ZZM  18 1
M  ZZI  18 113
M  ZZM  19 1
M  ZZI  19 112
M  ZZM  20 1
M  ZZI  20 112
M  ZZM  21 1
M  ZZI  21 112
M  ZZM  22 1
M  ZZI  22 112
M  ZZM  23 1
M  ZZI  23 112
M  ZZM  24 1
M  ZZI  24 113
M  ZZM  25 3
M  ZZI  25 121
M  ZZM  26 7
M  ZZI  26 81
M  ZZM  27 10
M  ZZI  27 211
M  ZZM  28 1
M  ZZI  28 113
M  ZZM  29 37
M  ZZI  29 124
M  ZZM  30 37
M  ZZI  30 124
M  ZZM  31 37
M  ZZI  31 125
M  ZZM  32 37
M  ZZI  32 125
M  ZZM  33 37
M  ZZI  33 125
M  ZZM  34 37
M  ZZI  34 125
M  ZZM  35 1
M  ZZI  35 112
M  ZZM  36 1
M  ZZI  36 112
M  ZZM  37 1
M  ZZI  37 112
M  ZZM  38 1
M  ZZI  38 112
M  ZZM  39 5
M  ZZI  39 1
M  ZZM  40 5
M  ZZI  40 1
M  ZZM  41 5
M  ZZI  41 1
M  ZZM  42 28
M  ZZI  42 11
M  ZZM  43 5
M  ZZI  43 1
M  ZZM  44 5
M  ZZI  44 1
M  ZZM  45 5
M  ZZI  45 1
M  ZZM  46 5
M  ZZI  46 1
M  ZZM  47 28
M  ZZI  47 11
M  ZZM  48 5
M  ZZI  48 1
M  ZZM  49 36
M  ZZI  49 17
M  ZZM  50 36
M  ZZI  50 17
M  ZZM  51 5
M  ZZI  51 1
M  ZZM  52 5
M  ZZI  52 1
M  ZZM  53 5
M  ZZI  53 1
M  ZZM  54 5
M  ZZI  54 1
M  ZZM  55 5
M  ZZI  55 1
M  ZZM  56 5
M  ZZI  56 1
M  ZZM  57 5
M  ZZI  57 1
M  ZZM  58 5
M  ZZI  58 1
M  ZZM  59 5
M  ZZI  59 1
M  ZZM  60 5
M  ZZI  60 1
M  ZZM  61 5
M  ZZI  61 1
M  ZZM  62 5
M  ZZI  62 1
M  ZZM  63 5
M  ZZI  63 1
M  ZZM  64 5
M  ZZI  64 1
M  ZZM  65 5
M  ZZI  65 1
M  ZZM  66 5
M  ZZI  66 1
M  ZZM  67 5
M  ZZI  67 1
M  ZZM  68 5
M  ZZI  68 1
M  ZZM  69 28
M  ZZI  69 11
M  ZZM  70 5
M  ZZI  70 1
M  ZZM  71 5
M  ZZI  71 1
M  ZZM  72 5
M  ZZI  72 1
M  ZZM  73 5
M  ZZI  73 1
M  ZZM  74 5
M  ZZI  74 1
M  ZZM  75 5
M  ZZI  75 1
M  ZZM  76 5
M  ZZI  76 1
M  ZZM  77 5
M  ZZI  77 1
M  ZZM  78 5
M  ZZI  78 1
M  ZZM  79 5
M  ZZI  79 1
M  ZZM  80 5
M  ZZI  80 1
M  ZZM  81 5
M  ZZI  81 1
M  ZZM  82 5
M  ZZI  82 1
M  CHG  1  15   1
M  END
> <IX>
1

> <NAME>
IAPBIR2_3KRR_4.pdb

> <Score>
-11.14493

> <Natom>
82

> <Nflex>
9

> <Hbond>
-3.617361

> <Hphob>
-6.608137

> <VwInt>
-46.55911

> <Dsolv>
16.995031

> <SolEl>
32.36804

> <Eintl>
15.807293

> <RecConf>
ND

> <projPath>
IAPBIR2_maps/

> <NAME_>
IAPBIR2_3KRR_4.pdb

$$$$
