IAPBIR2_5L2I_12.pdb
  MOLSOFT 04032206353D

 68 69  0  0  1  0  0  0  0  0999 V2000
   11.0875   49.4366   14.3654 F   0  0  0  0  0  0  0  0  0  0  0  0
   10.7846   48.3146   15.0398 C   0  0  0  0  0  0  0  0  0  0  0  0
   11.4461   48.0289   16.2274 C   0  0  0  0  0  0  0  0  0  0  0  0
   12.4248   48.9525   16.6945 N   0  0  0  0  0  0  0  0  0  0  0  0
   13.5046   48.6258   17.5053 C   0  0  0  0  0  0  0  0  0  0  0  0
   13.8935   47.4846   17.7070 O   0  0  0  0  0  0  0  0  0  0  0  0
   14.2208   49.8339   18.1275 C   0  0  1  0  0  0  0  0  0  0  0  0
   15.2728   49.3767   19.0383 N   0  0  0  0  0  0  0  0  0  0  0  0
   15.1342   48.8933   20.3421 C   0  0  0  0  0  0  0  0  0  0  0  0
   16.0901   48.4877   20.9893 O   0  0  0  0  0  0  0  0  0  0  0  0
   13.7178   48.8837   20.9428 C   0  0  1  0  0  0  0  0  0  0  0  0
   13.5082   47.5310   21.4648 N   0  0  0  0  0  0  0  0  0  0  0  0
   12.2851   46.8920   21.3525 C   0  0  0  0  0  0  0  0  0  0  0  0
   11.2909   47.4099   20.8643 O   0  0  0  0  0  0  0  0  0  0  0  0
   12.2380   45.4890   21.9505 C   0  0  1  0  0  0  0  0  0  0  0  0
   11.6600   45.5385   23.3521 N   0  3  0  0  0  0  0  0  0  0  0  0
   11.5963   44.2342   24.0629 C   0  0  0  0  0  0  0  0  0  0  0  0
   11.3636   44.5921   21.0774 C   0  0  0  0  0  0  0  0  0  0  0  0
   13.4919   50.0046   22.0083 C   0  0  0  0  0  0  0  0  0  0  0  0
   13.9130   51.3779   21.4587 C   0  0  0  0  0  0  0  0  0  0  0  0
   14.2758   49.7504   23.3014 C   0  0  0  0  0  0  0  0  0  0  0  0
   12.0034   50.0910   22.3824 C   0  0  0  0  0  0  0  0  0  0  0  0
   16.5847   49.5296   18.4344 C   0  0  0  0  0  0  0  0  0  0  0  0
   16.3192   49.9836   17.0015 C   0  0  1  0  0  0  0  0  0  0  0  0
   16.2350   48.8698   16.0716 N   0  0  0  0  0  0  0  0  0  0  0  0
   16.3809   49.0503   14.7154 C   0  0  0  0  0  0  0  0  0  0  0  0
   16.6511   50.1128   14.1768 O   0  0  0  0  0  0  0  0  0  0  0  0
   16.1158   47.8013   13.9329 C   0  0  0  0  0  0  0  0  0  0  0  0
   14.9705   50.6752   17.1030 C   0  0  0  0  0  0  0  0  0  0  0  0
   11.0638   46.8683   16.9069 C   0  0  0  0  0  0  0  0  0  0  0  0
   11.5399   46.5929   18.1292 F   0  0  0  0  0  0  0  0  0  0  0  0
   10.1156   46.0047   16.3861 C   0  0  0  0  0  0  0  0  0  0  0  0
    9.5106   46.2884   15.1751 C   0  0  0  0  0  0  0  0  0  0  0  0
    9.8390   47.4549   14.5072 C   0  0  0  0  0  0  0  0  0  0  0  0
   12.3969   49.8791   16.2804 H   0  0  0  0  0  0  0  0  0  0  0  0
   13.4774   50.4373   18.6546 H   0  0  0  0  0  0  0  0  0  0  0  0
   12.9869   49.0174   20.1440 H   0  0  0  0  0  0  0  0  0  0  0  0
   14.3211   47.0480   21.8452 H   0  0  0  0  0  0  0  0  0  0  0  0
   13.2524   45.0841   22.0294 H   0  0  0  0  0  0  0  0  0  0  0  0
   12.2113   46.1853   23.9318 H   0  0  0  0  0  0  0  0  0  0  0  0
   10.7153   45.9478   23.3218 H   0  0  0  0  0  0  0  0  0  0  0  0
   10.8309   43.6190   23.5836 H   0  0  0  0  0  0  0  0  0  0  0  0
   11.3198   44.4406   25.0996 H   0  0  0  0  0  0  0  0  0  0  0  0
   12.5820   43.7683   24.0126 H   0  0  0  0  0  0  0  0  0  0  0  0
   10.3012   44.8366   21.1734 H   0  0  0  0  0  0  0  0  0  0  0  0
   11.4917   43.5390   21.3347 H   0  0  0  0  0  0  0  0  0  0  0  0
   11.6241   44.7042   20.0259 H   0  0  0  0  0  0  0  0  0  0  0  0
   14.9772   51.3944   21.2014 H   0  0  0  0  0  0  0  0  0  0  0  0
   13.7525   52.1716   22.1936 H   0  0  0  0  0  0  0  0  0  0  0  0
   13.3656   51.6448   20.5493 H   0  0  0  0  0  0  0  0  0  0  0  0
   14.0874   50.5340   24.0425 H   0  0  0  0  0  0  0  0  0  0  0  0
   15.3543   49.7385   23.1223 H   0  0  0  0  0  0  0  0  0  0  0  0
   13.9889   48.8024   23.7674 H   0  0  0  0  0  0  0  0  0  0  0  0
   11.8085   50.9318   23.0562 H   0  0  0  0  0  0  0  0  0  0  0  0
   11.6584   49.1899   22.8985 H   0  0  0  0  0  0  0  0  0  0  0  0
   11.3750   50.2342   21.4975 H   0  0  0  0  0  0  0  0  0  0  0  0
   17.1168   50.2951   19.0067 H   0  0  0  0  0  0  0  0  0  0  0  0
   17.1531   48.5966   18.5022 H   0  0  0  0  0  0  0  0  0  0  0  0
   17.0860   50.6697   16.6342 H   0  0  0  0  0  0  0  0  0  0  0  0
   15.9153   47.9716   16.4176 H   0  0  0  0  0  0  0  0  0  0  0  0
   16.7944   47.7229   13.0801 H   0  0  0  0  0  0  0  0  0  0  0  0
   15.0906   47.8230   13.5704 H   0  0  0  0  0  0  0  0  0  0  0  0
   16.2476   46.9338   14.5790 H   0  0  0  0  0  0  0  0  0  0  0  0
   14.4569   50.7652   16.1403 H   0  0  0  0  0  0  0  0  0  0  0  0
   15.1156   51.6861   17.5012 H   0  0  0  0  0  0  0  0  0  0  0  0
    9.8373   45.1159   16.9427 H   0  0  0  0  0  0  0  0  0  0  0  0
    8.7693   45.6110   14.7617 H   0  0  0  0  0  0  0  0  0  0  0  0
    9.3599   47.6985   13.5647 H   0  0  0  0  0  0  0  0  0  0  0  0
  2  1  1  0  0  0  0
  2  3  2  0  0  0  0
  2 34  1  0  0  0  0
  3 30  1  0  0  0  0
  3  4  1  0  0  0  0
  4 35  1  0  0  0  0
  4  5  1  0  0  0  0
  5  6  2  0  0  0  0
  7  5  1  0  0  0  0
  7 36  1  0  0  0  0
  7 29  1  0  0  0  0
  7  8  1  0  0  0  0
  8 23  1  0  0  0  0
  8  9  1  0  0  0  0
  9 10  2  0  0  0  0
 11  9  1  0  0  0  0
 11 37  1  0  0  0  0
 11 19  1  0  0  0  0
 11 12  1  0  0  0  0
 12 38  1  0  0  0  0
 12 13  1  0  0  0  0
 13 14  2  0  0  0  0
 15 13  1  0  0  0  0
 15 39  1  0  0  0  0
 15 18  1  0  0  0  0
 15 16  1  0  0  0  0
 16 40  1  0  0  0  0
 16 41  1  0  0  0  0
 16 17  1  0  0  0  0
 17 42  1  0  0  0  0
 17 43  1  0  0  0  0
 17 44  1  0  0  0  0
 18 45  1  0  0  0  0
 18 46  1  0  0  0  0
 18 47  1  0  0  0  0
 19 20  1  0  0  0  0
 19 21  1  0  0  0  0
 19 22  1  0  0  0  0
 20 48  1  0  0  0  0
 20 49  1  0  0  0  0
 20 50  1  0  0  0  0
 21 51  1  0  0  0  0
 21 52  1  0  0  0  0
 21 53  1  0  0  0  0
 22 54  1  0  0  0  0
 22 55  1  0  0  0  0
 22 56  1  0  0  0  0
 24 23  1  0  0  0  0
 23 57  1  0  0  0  0
 23 58  1  0  0  0  0
 24 29  1  0  0  0  0
 24 59  1  0  0  0  0
 24 25  1  0  0  0  0
 25 60  1  0  0  0  0
 25 26  1  0  0  0  0
 26 27  2  0  0  0  0
 26 28  1  0  0  0  0
 28 61  1  0  0  0  0
 28 62  1  0  0  0  0
 28 63  1  0  0  0  0
 29 64  1  0  0  0  0
 29 65  1  0  0  0  0
 30 31  1  0  0  0  0
 30 32  2  0  0  0  0
 32 66  1  0  0  0  0
 32 33  1  0  0  0  0
 33 67  1  0  0  0  0
 33 34  2  0  0  0  0
 34 68  1  0  0  0  0
M  ZZC   1 f1
M  ZZC   2 c1
M  ZZC   3 c2
M  ZZC   4 n1
M  ZZC   5 c3
M  ZZC   6 o1
M  ZZC   7 c4
M  ZZC   8 n2
M  ZZC   9 c5
M  ZZC  10 o2
M  ZZC  11 c6
M  ZZC  12 n3
M  ZZC  13 c7
M  ZZC  14 o3
M  ZZC  15 c8
M  ZZC  16 n4
M  ZZC  17 c9
M  ZZC  18 c10
M  ZZC  19 c11
M  ZZC  20 c12
M  ZZC  21 c13
M  ZZC  22 c14
M  ZZC  23 c15
M  ZZC  24 c16
M  ZZC  25 n5
M  ZZC  26 c17
M  ZZC  27 o4
M  ZZC  28 c18
M  ZZC  29 c19
M  ZZC  30 c20
M  ZZC  31 f2
M  ZZC  32 c21
M  ZZC  33 c22
M  ZZC  34 c23
M  ZZC  35 h11
M  ZZC  36 h41
M  ZZC  37 h61
M  ZZC  38 h31
M  ZZC  39 h81
M  ZZC  40 h01
M  ZZC  41 h42
M  ZZC  42 h91
M  ZZC  43 h92
M  ZZC  44 h93
M  ZZC  45 h101
M  ZZC  46 h102
M  ZZC  47 h103
M  ZZC  48 h121
M  ZZC  49 h122
M  ZZC  50 h123
M  ZZC  51 h131
M  ZZC  52 h132
M  ZZC  53 h133
M  ZZC  54 h141
M  ZZC  55 h142
M  ZZC  56 h143
M  ZZC  57 h151
M  ZZC  58 h152
M  ZZC  59 h161
M  ZZC  60 h51
M  ZZC  61 h181
M  ZZC  62 h182
M  ZZC  63 h183
M  ZZC  64 h191
M  ZZC  65 h192
M  ZZC  66 h211
M  ZZC  67 h221
M  ZZC  68 h231
M  ZZM   1 11
M  ZZI   1 90
M  ZZM   2 37
M  ZZI   2 124
M  ZZM   3 37
M  ZZI   3 124
M  ZZM   4 10
M  ZZI   4 191
M  ZZM   5 3
M  ZZI   5 121
M  ZZM   6 7
M  ZZI   6 81
M  ZZM   7 1
M  ZZI   7 113
M  ZZM   8 10
M  ZZI   8 192
M  ZZM   9 3
M  ZZI   9 121
M  ZZM  10 7
M  ZZI  10 81
M  ZZM  11 1
M  ZZI  11 113
M  ZZM  12 10
M  ZZI  12 211
M  ZZM  13 3
M  ZZI  13 121
M  ZZM  14 7
M  ZZI  14 81
M  ZZM  15 1
M  ZZI  15 113
M  ZZM  16 34
M  ZZI  16 231
M  ZZM  17 1
M  ZZI  17 111
M  ZZM  18 1
M  ZZI  18 111
M  ZZM  19 1
M  ZZI  19 110
M  ZZM  20 1
M  ZZI  20 111
M  ZZM  21 1
M  ZZI  21 111
M  ZZM  22 1
M  ZZI  22 111
M  ZZM  23 1
M  ZZI  23 112
M  ZZM  24 1
M  ZZI  24 113
M  ZZM  25 10
M  ZZI  25 211
M  ZZM  26 3
M  ZZI  26 121
M  ZZM  27 7
M  ZZI  27 81
M  ZZM  28 1
M  ZZI  28 111
M  ZZM  29 1
M  ZZI  29 112
M  ZZM  30 37
M  ZZI  30 124
M  ZZM  31 11
M  ZZI  31 90
M  ZZM  32 37
M  ZZI  32 125
M  ZZM  33 37
M  ZZI  33 125
M  ZZM  34 37
M  ZZI  34 125
M  ZZM  35 28
M  ZZI  35 11
M  ZZM  36 5
M  ZZI  36 1
M  ZZM  37 5
M  ZZI  37 1
M  ZZM  38 28
M  ZZI  38 11
M  ZZM  39 5
M  ZZI  39 1
M  ZZM  40 36
M  ZZI  40 17
M  ZZM  41 36
M  ZZI  41 17
M  ZZM  42 5
M  ZZI  42 1
M  ZZM  43 5
M  ZZI  43 1
M  ZZM  44 5
M  ZZI  44 1
M  ZZM  45 5
M  ZZI  45 1
M  ZZM  46 5
M  ZZI  46 1
M  ZZM  47 5
M  ZZI  47 1
M  ZZM  48 5
M  ZZI  48 1
M  ZZM  49 5
M  ZZI  49 1
M  ZZM  50 5
M  ZZI  50 1
M  ZZM  51 5
M  ZZI  51 1
M  ZZM  52 5
M  ZZI  52 1
M  ZZM  53 5
M  ZZI  53 1
M  ZZM  54 5
M  ZZI  54 1
M  ZZM  55 5
M  ZZI  55 1
M  ZZM  56 5
M  ZZI  56 1
M  ZZM  57 5
M  ZZI  57 1
M  ZZM  58 5
M  ZZI  58 1
M  ZZM  59 5
M  ZZI  59 1
M  ZZM  60 28
M  ZZI  60 11
M  ZZM  61 5
M  ZZI  61 1
M  ZZM  62 5
M  ZZI  62 1
M  ZZM  63 5
M  ZZI  63 1
M  ZZM  64 5
M  ZZI  64 1
M  ZZM  65 5
M  ZZI  65 1
M  ZZM  66 5
M  ZZI  66 1
M  ZZM  67 5
M  ZZI  67 1
M  ZZM  68 5
M  ZZI  68 1
M  CHG  1  16   1
M  END
> <IX>
1

> <NAME>
IAPBIR2_5L2I_12.pdb

> <Score>
-26.129782

> <Natom>
68

> <Nflex>
8

> <Hbond>
-1.839959

> <Hphob>
-5.67053

> <VwInt>
-50.136812

> <Dsolv>
11.773962

> <SolEl>
22.752633

> <Eintl>
6.356953

> <RecConf>
ND

> <projPath>
IAPBIR2_maps/

> <NAME_>
IAPBIR2_5L2I_12.pdb

$$$$
