IAPBIR2_6NY4_10.pdb
  MOLSOFT 04032206413D

 82 85  0  0  1  0  0  0  0  0999 V2000
    8.9181   45.7916   13.4027 C   0  0  0  0  0  0  0  0  0  0  0  0
    9.1843   47.2173   13.7976 C   0  0  0  0  0  0  0  0  0  0  0  0
    8.7674   48.1583   13.1396 O   0  0  0  0  0  0  0  0  0  0  0  0
    9.9005   47.3297   14.9718 N   0  0  0  0  0  0  0  0  0  0  0  0
   10.1986   48.6183   15.5901 C   0  0  2  0  0  0  0  0  0  0  0  0
   11.6964   48.8873   15.6959 C   0  0  0  0  0  0  0  0  0  0  0  0
   12.0962   48.3635   16.9879 N   0  0  0  0  0  0  0  0  0  0  0  0
   13.3542   48.3986   17.5936 C   0  0  0  0  0  0  0  0  0  0  0  0
   13.5945   47.6825   18.5562 O   0  0  0  0  0  0  0  0  0  0  0  0
   14.3787   49.4577   17.1353 C   0  0  1  0  0  0  0  0  0  0  0  0
   15.4839   49.4028   18.0965 N   0  0  0  0  0  0  0  0  0  0  0  0
   15.4877   50.1738   19.2477 C   0  0  0  0  0  0  0  0  0  0  0  0
   14.6725   51.0526   19.4916 O   0  0  0  0  0  0  0  0  0  0  0  0
   16.5928   49.8048   20.2319 C   0  0  1  0  0  0  0  0  0  0  0  0
   16.9635   50.9716   21.1316 N   0  3  0  0  0  0  0  0  0  0  0  0
   18.2260   50.8240   21.9207 C   0  0  0  0  0  0  0  0  0  0  0  0
   16.1135   48.6250   21.0791 C   0  0  0  0  0  0  0  0  0  0  0  0
   14.8859   49.4261   15.6804 C   0  0  0  0  0  0  0  0  0  0  0  0
   15.8510   50.5904   15.4191 C   0  0  0  0  0  0  0  0  0  0  0  0
   16.2261   50.6631   13.9488 C   0  0  0  0  0  0  0  0  0  0  0  0
   16.8216   49.3507   13.4743 C   0  0  0  0  0  0  0  0  0  0  0  0
   15.9280   48.1570   13.7897 C   0  0  0  0  0  0  0  0  0  0  0  0
   15.5365   48.1079   15.2598 C   0  0  0  0  0  0  0  0  0  0  0  0
   10.9283   48.0178   17.7915 C   0  0  2  0  0  0  0  0  0  0  0  0
   10.6882   46.5243   18.0145 C   0  0  0  0  0  0  0  0  0  0  0  0
   10.7976   45.6874   17.1254 O   0  0  0  0  0  0  0  0  0  0  0  0
   10.2581   46.2565   19.3025 N   0  0  0  0  0  0  0  0  0  0  0  0
    9.8909   44.9310   19.7588 C   0  0  1  0  0  0  0  0  0  0  0  0
   10.3581   44.7264   21.1833 C   0  0  0  0  0  0  0  0  0  0  0  0
    9.4658   44.5700   22.2507 C   0  0  0  0  0  0  0  0  0  0  0  0
    9.9598   44.3923   23.5397 C   0  0  0  0  0  0  0  0  0  0  0  0
   11.3176   44.4205   23.7880 C   0  0  0  0  0  0  0  0  0  0  0  0
   12.1951   44.5965   22.7428 C   0  0  0  0  0  0  0  0  0  0  0  0
   11.7226   44.7412   21.4558 C   0  0  0  0  0  0  0  0  0  0  0  0
    7.9773   44.5656   22.0352 C   0  0  0  0  0  0  0  0  0  0  0  0
    7.5838   45.2523   20.7344 C   0  0  0  0  0  0  0  0  0  0  0  0
    8.3916   44.7051   19.5692 C   0  0  0  0  0  0  0  0  0  0  0  0
    9.7512   48.6309   17.0425 C   0  0  0  0  0  0  0  0  0  0  0  0
    9.7584   45.1550   13.6843 H   0  0  0  0  0  0  0  0  0  0  0  0
    8.7852   45.7245   12.3192 H   0  0  0  0  0  0  0  0  0  0  0  0
    8.0138   45.4382   13.9054 H   0  0  0  0  0  0  0  0  0  0  0  0
   10.2158   46.4838   15.4446 H   0  0  0  0  0  0  0  0  0  0  0  0
    9.7019   49.4051   15.0134 H   0  0  0  0  0  0  0  0  0  0  0  0
   12.2709   48.3977   14.9041 H   0  0  0  0  0  0  0  0  0  0  0  0
   11.9010   49.9632   15.6890 H   0  0  0  0  0  0  0  0  0  0  0  0
   13.8730   50.4183   17.2829 H   0  0  0  0  0  0  0  0  0  0  0  0
   16.1816   48.6751   17.9815 H   0  0  0  0  0  0  0  0  0  0  0  0
   17.4833   49.5517   19.6528 H   0  0  0  0  0  0  0  0  0  0  0  0
   17.0600   51.8141   20.5477 H   0  0  0  0  0  0  0  0  0  0  0  0
   16.1770   51.1796   21.7610 H   0  0  0  0  0  0  0  0  0  0  0  0
   18.3875   51.7311   22.5080 H   0  0  0  0  0  0  0  0  0  0  0  0
   19.0431   50.6884   21.2077 H   0  0  0  0  0  0  0  0  0  0  0  0
   18.1382   49.9409   22.5599 H   0  0  0  0  0  0  0  0  0  0  0  0
   15.2604   48.9038   21.7041 H   0  0  0  0  0  0  0  0  0  0  0  0
   16.9008   48.2461   21.7337 H   0  0  0  0  0  0  0  0  0  0  0  0
   15.7852   47.7941   20.4496 H   0  0  0  0  0  0  0  0  0  0  0  0
   14.0326   49.5838   15.0203 H   0  0  0  0  0  0  0  0  0  0  0  0
   15.3962   51.5401   15.7193 H   0  0  0  0  0  0  0  0  0  0  0  0
   16.7647   50.4772   16.0140 H   0  0  0  0  0  0  0  0  0  0  0  0
   15.3395   50.9015   13.3516 H   0  0  0  0  0  0  0  0  0  0  0  0
   16.9434   51.4741   13.7887 H   0  0  0  0  0  0  0  0  0  0  0  0
   16.9998   49.4044   12.3973 H   0  0  0  0  0  0  0  0  0  0  0  0
   17.7929   49.2184   13.9584 H   0  0  0  0  0  0  0  0  0  0  0  0
   15.0307   48.2066   13.1674 H   0  0  0  0  0  0  0  0  0  0  0  0
   16.4353   47.2302   13.5205 H   0  0  0  0  0  0  0  0  0  0  0  0
   16.4320   47.9119   15.8564 H   0  0  0  0  0  0  0  0  0  0  0  0
   14.8533   47.2710   15.4265 H   0  0  0  0  0  0  0  0  0  0  0  0
   11.0402   48.4991   18.7704 H   0  0  0  0  0  0  0  0  0  0  0  0
   10.1894   47.0085   19.9801 H   0  0  0  0  0  0  0  0  0  0  0  0
   10.3998   44.2140   19.1160 H   0  0  0  0  0  0  0  0  0  0  0  0
    9.2779   44.2421   24.3711 H   0  0  0  0  0  0  0  0  0  0  0  0
   11.6962   44.3079   24.7982 H   0  0  0  0  0  0  0  0  0  0  0  0
   13.2590   44.6143   22.9303 H   0  0  0  0  0  0  0  0  0  0  0  0
   12.4387   44.8848   20.6555 H   0  0  0  0  0  0  0  0  0  0  0  0
    7.6258   43.5290   22.0381 H   0  0  0  0  0  0  0  0  0  0  0  0
    7.4782   45.0755   22.8660 H   0  0  0  0  0  0  0  0  0  0  0  0
    6.5153   45.1020   20.5504 H   0  0  0  0  0  0  0  0  0  0  0  0
    7.7407   46.3337   20.8172 H   0  0  0  0  0  0  0  0  0  0  0  0
    8.0467   45.1509   18.6301 H   0  0  0  0  0  0  0  0  0  0  0  0
    8.1993   43.6344   19.4820 H   0  0  0  0  0  0  0  0  0  0  0  0
    9.6172   49.6692   17.3678 H   0  0  0  0  0  0  0  0  0  0  0  0
    8.8052   48.1027   17.2075 H   0  0  0  0  0  0  0  0  0  0  0  0
  1 39  1  0  0  0  0
  1 40  1  0  0  0  0
  1 41  1  0  0  0  0
  1  2  1  0  0  0  0
  2  3  2  0  0  0  0
  2  4  1  0  0  0  0
  4 42  1  0  0  0  0
  5  4  1  0  0  0  0
  5 43  1  0  0  0  0
  5 38  1  0  0  0  0
  5  6  1  0  0  0  0
  6  7  1  0  0  0  0
  6 44  1  0  0  0  0
  6 45  1  0  0  0  0
 24  7  1  0  0  0  0
  7  8  1  0  0  0  0
  8  9  2  0  0  0  0
 10  8  1  0  0  0  0
 10 46  1  0  0  0  0
 10 11  1  0  0  0  0
 10 18  1  0  0  0  0
 11 47  1  0  0  0  0
 11 12  1  0  0  0  0
 12 13  2  0  0  0  0
 14 12  1  0  0  0  0
 14 48  1  0  0  0  0
 14 17  1  0  0  0  0
 14 15  1  0  0  0  0
 15 49  1  0  0  0  0
 15 50  1  0  0  0  0
 15 16  1  0  0  0  0
 16 51  1  0  0  0  0
 16 52  1  0  0  0  0
 16 53  1  0  0  0  0
 17 54  1  0  0  0  0
 17 55  1  0  0  0  0
 17 56  1  0  0  0  0
 18 57  1  0  0  0  0
 18 19  1  0  0  0  0
 18 23  1  0  0  0  0
 19 58  1  0  0  0  0
 19 59  1  0  0  0  0
 19 20  1  0  0  0  0
 20 60  1  0  0  0  0
 20 61  1  0  0  0  0
 20 21  1  0  0  0  0
 21 62  1  0  0  0  0
 21 63  1  0  0  0  0
 21 22  1  0  0  0  0
 22 64  1  0  0  0  0
 22 65  1  0  0  0  0
 22 23  1  0  0  0  0
 23 66  1  0  0  0  0
 23 67  1  0  0  0  0
 24 38  1  0  0  0  0
 24 68  1  0  0  0  0
 24 25  1  0  0  0  0
 25 26  2  0  0  0  0
 25 27  1  0  0  0  0
 27 69  1  0  0  0  0
 28 27  1  0  0  0  0
 28 70  1  0  0  0  0
 28 29  1  0  0  0  0
 28 37  1  0  0  0  0
 29 30  2  0  0  0  0
 29 34  1  0  0  0  0
 30 35  1  0  0  0  0
 30 31  1  0  0  0  0
 31 71  1  0  0  0  0
 31 32  2  0  0  0  0
 32 72  1  0  0  0  0
 32 33  1  0  0  0  0
 33 73  1  0  0  0  0
 33 34  2  0  0  0  0
 34 74  1  0  0  0  0
 35 75  1  0  0  0  0
 35 76  1  0  0  0  0
 35 36  1  0  0  0  0
 36 77  1  0  0  0  0
 36 78  1  0  0  0  0
 36 37  1  0  0  0  0
 37 79  1  0  0  0  0
 37 80  1  0  0  0  0
 38 81  1  0  0  0  0
 38 82  1  0  0  0  0
M  ZZC   1 c1
M  ZZC   2 c2
M  ZZC   3 o1
M  ZZC   4 n1
M  ZZC   5 c3
M  ZZC   6 c4
M  ZZC   7 n2
M  ZZC   8 c5
M  ZZC   9 o2
M  ZZC  10 c6
M  ZZC  11 n3
M  ZZC  12 c7
M  ZZC  13 o3
M  ZZC  14 c8
M  ZZC  15 n4
M  ZZC  16 c9
M  ZZC  17 c10
M  ZZC  18 c11
M  ZZC  19 c12
M  ZZC  20 c13
M  ZZC  21 c14
M  ZZC  22 c15
M  ZZC  23 c16
M  ZZC  24 c17
M  ZZC  25 c18
M  ZZC  26 o4
M  ZZC  27 n5
M  ZZC  28 c19
M  ZZC  29 c20
M  ZZC  30 c21
M  ZZC  31 c22
M  ZZC  32 c23
M  ZZC  33 c24
M  ZZC  34 c25
M  ZZC  35 c26
M  ZZC  36 c27
M  ZZC  37 c28
M  ZZC  38 c29
M  ZZC  39 h11
M  ZZC  40 h12
M  ZZC  41 h13
M  ZZC  42 h01
M  ZZC  43 h31
M  ZZC  44 h41
M  ZZC  45 h42
M  ZZC  46 h61
M  ZZC  47 h02
M  ZZC  48 h81
M  ZZC  49 h03
M  ZZC  50 h04
M  ZZC  51 h91
M  ZZC  52 h92
M  ZZC  53 h93
M  ZZC  54 h101
M  ZZC  55 h102
M  ZZC  56 h103
M  ZZC  57 h111
M  ZZC  58 h121
M  ZZC  59 h122
M  ZZC  60 h131
M  ZZC  61 h132
M  ZZC  62 h141
M  ZZC  63 h142
M  ZZC  64 h151
M  ZZC  65 h152
M  ZZC  66 h161
M  ZZC  67 h162
M  ZZC  68 h171
M  ZZC  69 h51
M  ZZC  70 h191
M  ZZC  71 h221
M  ZZC  72 h231
M  ZZC  73 h241
M  ZZC  74 h251
M  ZZC  75 h261
M  ZZC  76 h262
M  ZZC  77 h271
M  ZZC  78 h272
M  ZZC  79 h281
M  ZZC  80 h282
M  ZZC  81 h291
M  ZZC  82 h292
M  ZZM   1 1
M  ZZI   1 111
M  ZZM   2 3
M  ZZI   2 121
M  ZZM   3 7
M  ZZI   3 81
M  ZZM   4 10
M  ZZI   4 211
M  ZZM   5 1
M  ZZI   5 113
M  ZZM   6 1
M  ZZI   6 112
M  ZZM   7 10
M  ZZI   7 192
M  ZZM   8 3
M  ZZI   8 121
M  ZZM   9 7
M  ZZI   9 81
M  ZZM  10 1
M  ZZI  10 113
M  ZZM  11 10
M  ZZI  11 211
M  ZZM  12 3
M  ZZI  12 121
M  ZZM  13 7
M  ZZI  13 81
M  ZZM  14 1
M  ZZI  14 113
M  ZZM  15 34
M  ZZI  15 231
M  ZZM  16 1
M  ZZI  16 111
M  ZZM  17 1
M  ZZI  17 111
M  ZZM  18 1
M  ZZI  18 113
M  ZZM  19 1
M  ZZI  19 112
M  ZZM  20 1
M  ZZI  20 112
M  ZZM  21 1
M  ZZI  21 112
M  ZZM  22 1
M  ZZI  22 112
M  ZZM  23 1
M  ZZI  23 112
M  ZZM  24 1
M  ZZI  24 113
M  ZZM  25 3
M  ZZI  25 121
M  ZZM  26 7
M  ZZI  26 81
M  ZZM  27 10
M  ZZI  27 211
M  ZZM  28 1
M  ZZI  28 113
M  ZZM  29 37
M  ZZI  29 124
M  ZZM  30 37
M  ZZI  30 124
M  ZZM  31 37
M  ZZI  31 125
M  ZZM  32 37
M  ZZI  32 125
M  ZZM  33 37
M  ZZI  33 125
M  ZZM  34 37
M  ZZI  34 125
M  ZZM  35 1
M  ZZI  35 112
M  ZZM  36 1
M  ZZI  36 112
M  ZZM  37 1
M  ZZI  37 112
M  ZZM  38 1
M  ZZI  38 112
M  ZZM  39 5
M  ZZI  39 1
M  ZZM  40 5
M  ZZI  40 1
M  ZZM  41 5
M  ZZI  41 1
M  ZZM  42 28
M  ZZI  42 11
M  ZZM  43 5
M  ZZI  43 1
M  ZZM  44 5
M  ZZI  44 1
M  ZZM  45 5
M  ZZI  45 1
M  ZZM  46 5
M  ZZI  46 1
M  ZZM  47 28
M  ZZI  47 11
M  ZZM  48 5
M  ZZI  48 1
M  ZZM  49 36
M  ZZI  49 17
M  ZZM  50 36
M  ZZI  50 17
M  ZZM  51 5
M  ZZI  51 1
M  ZZM  52 5
M  ZZI  52 1
M  ZZM  53 5
M  ZZI  53 1
M  ZZM  54 5
M  ZZI  54 1
M  ZZM  55 5
M  ZZI  55 1
M  ZZM  56 5
M  ZZI  56 1
M  ZZM  57 5
M  ZZI  57 1
M  ZZM  58 5
M  ZZI  58 1
M  ZZM  59 5
M  ZZI  59 1
M  ZZM  60 5
M  ZZI  60 1
M  ZZM  61 5
M  ZZI  61 1
M  ZZM  62 5
M  ZZI  62 1
M  ZZM  63 5
M  ZZI  63 1
M  ZZM  64 5
M  ZZI  64 1
M  ZZM  65 5
M  ZZI  65 1
M  ZZM  66 5
M  ZZI  66 1
M  ZZM  67 5
M  ZZI  67 1
M  ZZM  68 5
M  ZZI  68 1
M  ZZM  69 28
M  ZZI  69 11
M  ZZM  70 5
M  ZZI  70 1
M  ZZM  71 5
M  ZZI  71 1
M  ZZM  72 5
M  ZZI  72 1
M  ZZM  73 5
M  ZZI  73 1
M  ZZM  74 5
M  ZZI  74 1
M  ZZM  75 5
M  ZZI  75 1
M  ZZM  76 5
M  ZZI  76 1
M  ZZM  77 5
M  ZZI  77 1
M  ZZM  78 5
M  ZZI  78 1
M  ZZM  79 5
M  ZZI  79 1
M  ZZM  80 5
M  ZZI  80 1
M  ZZM  81 5
M  ZZI  81 1
M  ZZM  82 5
M  ZZI  82 1
M  CHG  1  15   1
M  END
> <IX>
1

> <NAME>
IAPBIR2_6NY4_10.pdb

> <Score>
-29.249538

> <Natom>
82

> <Nflex>
9

> <Hbond>
-2.890811

> <Hphob>
-6.71148

> <VwInt>
-57.283354

> <Dsolv>
14.465502

> <SolEl>
24.445833

> <Eintl>
12.434804

> <RecConf>
ND

> <projPath>
IAPBIR2_maps/

> <NAME_>
IAPBIR2_6NY4_10.pdb

$$$$
