IAPBIR2_3ERT_2.pdb
  MOLSOFT 04032206323D

 48 48  0  0  1  0  0  0  0  0999 V2000
   22.0023   22.5285   14.5894 O   0  0  0  0  0  0  0  0  0  0  0  0
   22.9420   22.5491   15.3678 C   0  0  0  0  0  0  0  0  0  0  0  0
   22.8843   22.0387   16.6509 N   0  0  0  0  0  0  0  0  0  0  0  0
   21.6318   21.5647   17.2417 C   0  0  2  0  0  0  0  0  0  0  0  0
   21.7586   21.6554   18.7642 C   0  0  0  0  0  0  0  0  0  0  0  0
   22.8276   21.5660   19.3495 O   0  0  0  0  0  0  0  0  0  0  0  0
   20.5731   21.8154   19.4405 N   0  0  0  0  0  0  0  0  0  0  0  0
   21.2828   20.1281   16.8165 C   0  0  0  0  0  0  0  0  0  0  0  0
   20.2984   20.0317   15.6371 C   0  0  0  0  0  0  0  0  0  0  0  0
   18.9441   20.6453   15.9819 C   0  0  0  0  0  0  0  0  0  0  0  0
   20.1161   18.5736   15.2262 C   0  0  0  0  0  0  0  0  0  0  0  0
   24.2786   23.1610   14.9722 C   0  0  1  0  0  0  0  0  0  0  0  0
   24.2189   23.6293   13.6109 O   0  0  0  0  0  0  0  0  0  0  0  0
   24.6441   24.3438   15.9002 C   0  0  2  0  0  0  0  0  0  0  0  0
   23.6511   25.4461   15.6775 N   0  3  0  0  0  0  0  0  0  0  0  0
   26.0639   24.8784   15.6230 C   0  0  0  0  0  0  0  0  0  0  0  0
   26.4984   26.1132   16.3889 C   0  0  0  0  0  0  0  0  0  0  0  0
   26.1122   26.3786   17.7040 C   0  0  0  0  0  0  0  0  0  0  0  0
   26.5232   27.5422   18.3361 C   0  0  0  0  0  0  0  0  0  0  0  0
   27.3234   28.4560   17.6861 C   0  0  0  0  0  0  0  0  0  0  0  0
   27.7334   28.1942   16.4006 C   0  0  0  0  0  0  0  0  0  0  0  0
   27.3536   27.0231   15.7710 C   0  0  0  0  0  0  0  0  0  0  0  0
   23.7199   21.9790   17.2276 H   0  0  0  0  0  0  0  0  0  0  0  0
   20.8544   22.2622   16.9308 H   0  0  0  0  0  0  0  0  0  0  0  0
   20.5830   21.8729   20.4525 H   0  0  0  0  0  0  0  0  0  0  0  0
   19.6696   21.9433   18.9946 H   0  0  0  0  0  0  0  0  0  0  0  0
   22.2042   19.5923   16.5623 H   0  0  0  0  0  0  0  0  0  0  0  0
   20.8520   19.5856   17.6657 H   0  0  0  0  0  0  0  0  0  0  0  0
   20.7009   20.5557   14.7675 H   0  0  0  0  0  0  0  0  0  0  0  0
   18.1936   20.3633   15.2396 H   0  0  0  0  0  0  0  0  0  0  0  0
   18.9853   21.7371   16.0030 H   0  0  0  0  0  0  0  0  0  0  0  0
   18.5958   20.3149   16.9635 H   0  0  0  0  0  0  0  0  0  0  0  0
   21.0679   18.1364   14.9098 H   0  0  0  0  0  0  0  0  0  0  0  0
   19.4205   18.4846   14.3861 H   0  0  0  0  0  0  0  0  0  0  0  0
   19.7261   17.9711   16.0521 H   0  0  0  0  0  0  0  0  0  0  0  0
   25.0390   22.3750   15.0266 H   0  0  0  0  0  0  0  0  0  0  0  0
   23.6600   23.0121   13.0952 H   0  0  0  0  0  0  0  0  0  0  0  0
   24.5438   24.0685   16.9541 H   0  0  0  0  0  0  0  0  0  0  0  0
   23.8920   26.2925   16.2089 H   0  0  0  0  0  0  0  0  0  0  0  0
   22.6957   25.1780   15.9394 H   0  0  0  0  0  0  0  0  0  0  0  0
   23.6123   25.7296   14.6934 H   0  0  0  0  0  0  0  0  0  0  0  0
   26.7890   24.0856   15.8343 H   0  0  0  0  0  0  0  0  0  0  0  0
   26.1543   25.0930   14.5525 H   0  0  0  0  0  0  0  0  0  0  0  0
   25.4771   25.6941   18.2567 H   0  0  0  0  0  0  0  0  0  0  0  0
   26.2039   27.7606   19.3461 H   0  0  0  0  0  0  0  0  0  0  0  0
   27.6349   29.3674   18.1842 H   0  0  0  0  0  0  0  0  0  0  0  0
   28.3612   28.9119   15.8924 H   0  0  0  0  0  0  0  0  0  0  0  0
   27.7272   26.8304   14.7702 H   0  0  0  0  0  0  0  0  0  0  0  0
  1  2  2  0  0  0  0
  2  3  1  0  0  0  0
 12  2  1  0  0  0  0
  4  3  1  0  0  0  0
  3 23  1  0  0  0  0
  4  8  1  0  0  0  0
  4 24  1  0  0  0  0
  4  5  1  0  0  0  0
  5  6  2  0  0  0  0
  5  7  1  0  0  0  0
  7 25  1  0  0  0  0
  7 26  1  0  0  0  0
  8 27  1  0  0  0  0
  8 28  1  0  0  0  0
  8  9  1  0  0  0  0
  9 29  1  0  0  0  0
  9 11  1  0  0  0  0
  9 10  1  0  0  0  0
 10 30  1  0  0  0  0
 10 31  1  0  0  0  0
 10 32  1  0  0  0  0
 11 33  1  0  0  0  0
 11 34  1  0  0  0  0
 11 35  1  0  0  0  0
 12 36  1  0  0  0  0
 12 13  1  0  0  0  0
 12 14  1  0  0  0  0
 13 37  1  0  0  0  0
 14 38  1  0  0  0  0
 14 15  1  0  0  0  0
 14 16  1  0  0  0  0
 15 39  1  0  0  0  0
 15 40  1  0  0  0  0
 15 41  1  0  0  0  0
 16 42  1  0  0  0  0
 16 43  1  0  0  0  0
 16 17  1  0  0  0  0
 17 18  1  0  0  0  0
 17 22  2  0  0  0  0
 18 44  1  0  0  0  0
 18 19  2  0  0  0  0
 19 45  1  0  0  0  0
 19 20  1  0  0  0  0
 20 46  1  0  0  0  0
 20 21  2  0  0  0  0
 21 47  1  0  0  0  0
 21 22  1  0  0  0  0
 22 48  1  0  0  0  0
M  ZZC   1 o1
M  ZZC   2 c1
M  ZZC   3 n1
M  ZZC   4 c2
M  ZZC   5 c3
M  ZZC   6 o2
M  ZZC   7 n2
M  ZZC   8 c4
M  ZZC   9 c5
M  ZZC  10 c6
M  ZZC  11 c7
M  ZZC  12 c8
M  ZZC  13 o3
M  ZZC  14 c9
M  ZZC  15 n3
M  ZZC  16 c10
M  ZZC  17 c11
M  ZZC  18 c12
M  ZZC  19 c13
M  ZZC  20 c14
M  ZZC  21 c15
M  ZZC  22 c16
M  ZZC  23 h11
M  ZZC  24 h21
M  ZZC  25 h01
M  ZZC  26 h22
M  ZZC  27 h41
M  ZZC  28 h42
M  ZZC  29 h51
M  ZZC  30 h61
M  ZZC  31 h62
M  ZZC  32 h63
M  ZZC  33 h71
M  ZZC  34 h72
M  ZZC  35 h73
M  ZZC  36 h81
M  ZZC  37 h31
M  ZZC  38 h91
M  ZZC  39 h02
M  ZZC  40 h32
M  ZZC  41 h33
M  ZZC  42 h101
M  ZZC  43 h102
M  ZZC  44 h121
M  ZZC  45 h131
M  ZZC  46 h141
M  ZZC  47 h151
M  ZZC  48 h161
M  ZZM   1 7
M  ZZI   1 81
M  ZZM   2 3
M  ZZI   2 121
M  ZZM   3 10
M  ZZI   3 211
M  ZZM   4 1
M  ZZI   4 113
M  ZZM   5 3
M  ZZI   5 121
M  ZZM   6 7
M  ZZI   6 81
M  ZZM   7 10
M  ZZI   7 212
M  ZZM   8 1
M  ZZI   8 112
M  ZZM   9 1
M  ZZI   9 113
M  ZZM  10 1
M  ZZI  10 111
M  ZZM  11 1
M  ZZI  11 111
M  ZZM  12 1
M  ZZI  12 113
M  ZZM  13 6
M  ZZI  13 60
M  ZZM  14 1
M  ZZI  14 113
M  ZZM  15 34
M  ZZI  15 231
M  ZZM  16 1
M  ZZI  16 112
M  ZZM  17 37
M  ZZI  17 124
M  ZZM  18 37
M  ZZI  18 125
M  ZZM  19 37
M  ZZI  19 125
M  ZZM  20 37
M  ZZI  20 125
M  ZZM  21 37
M  ZZI  21 125
M  ZZM  22 37
M  ZZI  22 125
M  ZZM  23 28
M  ZZI  23 11
M  ZZM  24 5
M  ZZI  24 1
M  ZZM  25 28
M  ZZI  25 11
M  ZZM  26 28
M  ZZI  26 11
M  ZZM  27 5
M  ZZI  27 1
M  ZZM  28 5
M  ZZI  28 1
M  ZZM  29 5
M  ZZI  29 1
M  ZZM  30 5
M  ZZI  30 1
M  ZZM  31 5
M  ZZI  31 1
M  ZZM  32 5
M  ZZI  32 1
M  ZZM  33 5
M  ZZI  33 1
M  ZZM  34 5
M  ZZI  34 1
M  ZZM  35 5
M  ZZI  35 1
M  ZZM  36 5
M  ZZI  36 1
M  ZZM  37 21
M  ZZI  37 20
M  ZZM  38 5
M  ZZI  38 1
M  ZZM  39 36
M  ZZI  39 17
M  ZZM  40 36
M  ZZI  40 17
M  ZZM  41 36
M  ZZI  41 17
M  ZZM  42 5
M  ZZI  42 1
M  ZZM  43 5
M  ZZI  43 1
M  ZZM  44 5
M  ZZI  44 1
M  ZZM  45 5
M  ZZI  45 1
M  ZZM  46 5
M  ZZI  46 1
M  ZZM  47 5
M  ZZI  47 1
M  ZZM  48 5
M  ZZI  48 1
M  CHG  1  15   1
M  END
> <IX>
1

> <NAME>
IAPBIR2_3ERT_2.pdb

> <Score>
-11.64237

> <Natom>
48

> <Nflex>
9

> <Hbond>
-3.02429

> <Hphob>
-4.195801

> <VwInt>
-41.201421

> <Dsolv>
15.132649

> <SolEl>
29.436143

> <Eintl>
6.40725

> <RecConf>
ND

> <projPath>
IAPBIR2_maps/

> <NAME_>
IAPBIR2_3ERT_2.pdb

$$$$
