IAPBIR2_6W8L_3.pdb
  MOLSOFT 04032206403D

 82 85  0  0  1  0  0  0  0  0999 V2000
    8.6060   45.2257   13.0617 C   0  0  0  0  0  0  0  0  0  0  0  0
    9.0328   46.6344   13.3426 C   0  0  0  0  0  0  0  0  0  0  0  0
    8.6770   47.5654   12.6356 O   0  0  0  0  0  0  0  0  0  0  0  0
    9.8506   46.7486   14.4488 N   0  0  0  0  0  0  0  0  0  0  0  0
   10.2068   48.0519   14.9839 C   0  0  2  0  0  0  0  0  0  0  0  0
   11.5922   48.1121   15.6340 C   0  0  0  0  0  0  0  0  0  0  0  0
   11.3663   48.1667   17.0640 N   0  0  0  0  0  0  0  0  0  0  0  0
   12.2604   48.4331   18.0996 C   0  0  0  0  0  0  0  0  0  0  0  0
   11.8141   48.5685   19.2305 O   0  0  0  0  0  0  0  0  0  0  0  0
   13.7879   48.3905   17.8602 C   0  0  1  0  0  0  0  0  0  0  0  0
   14.2174   49.1228   16.6615 N   0  0  0  0  0  0  0  0  0  0  0  0
   14.8713   48.4900   15.6140 C   0  0  0  0  0  0  0  0  0  0  0  0
   15.0206   47.2816   15.5473 O   0  0  0  0  0  0  0  0  0  0  0  0
   15.4723   49.4114   14.5517 C   0  0  1  0  0  0  0  0  0  0  0  0
   16.9566   49.1709   14.4005 N   0  3  0  0  0  0  0  0  0  0  0  0
   17.7062   49.1254   15.6828 C   0  0  0  0  0  0  0  0  0  0  0  0
   14.8340   49.1502   13.1937 C   0  0  0  0  0  0  0  0  0  0  0  0
   14.5056   48.9256   19.1261 C   0  0  0  0  0  0  0  0  0  0  0  0
   14.4470   47.9203   20.2861 C   0  0  0  0  0  0  0  0  0  0  0  0
   14.9419   48.5634   21.5680 C   0  0  0  0  0  0  0  0  0  0  0  0
   16.3722   49.0494   21.4214 C   0  0  0  0  0  0  0  0  0  0  0  0
   16.5475   49.9398   20.1974 C   0  0  0  0  0  0  0  0  0  0  0  0
   15.9724   49.3265   18.9244 C   0  0  0  0  0  0  0  0  0  0  0  0
    9.9596   47.9855   17.3746 C   0  0  2  0  0  0  0  0  0  0  0  0
    9.7687   46.5075   17.7513 C   0  0  0  0  0  0  0  0  0  0  0  0
    9.7107   45.6061   16.9228 O   0  0  0  0  0  0  0  0  0  0  0  0
    9.7714   46.2868   19.1183 N   0  0  0  0  0  0  0  0  0  0  0  0
    9.5631   44.9649   19.6837 C   0  0  1  0  0  0  0  0  0  0  0  0
   10.2218   44.8261   21.0427 C   0  0  0  0  0  0  0  0  0  0  0  0
    9.4959   44.5660   22.2115 C   0  0  0  0  0  0  0  0  0  0  0  0
   10.1689   44.4029   23.4198 C   0  0  0  0  0  0  0  0  0  0  0  0
   11.5405   44.5479   23.4960 C   0  0  0  0  0  0  0  0  0  0  0  0
   12.2528   44.8476   22.3560 C   0  0  0  0  0  0  0  0  0  0  0  0
   11.6009   44.9696   21.1473 C   0  0  0  0  0  0  0  0  0  0  0  0
    7.9989   44.4295   22.1886 C   0  0  0  0  0  0  0  0  0  0  0  0
    7.3883   45.1064   20.9699 C   0  0  0  0  0  0  0  0  0  0  0  0
    8.0697   44.6373   19.6947 C   0  0  0  0  0  0  0  0  0  0  0  0
    9.2445   48.4142   16.1049 C   0  0  0  0  0  0  0  0  0  0  0  0
    8.5240   44.6630   13.9938 H   0  0  0  0  0  0  0  0  0  0  0  0
    9.3341   44.7478   12.4014 H   0  0  0  0  0  0  0  0  0  0  0  0
    7.6257   45.2366   12.5784 H   0  0  0  0  0  0  0  0  0  0  0  0
   10.0168   45.9305   15.0319 H   0  0  0  0  0  0  0  0  0  0  0  0
   10.1401   48.7773   14.1663 H   0  0  0  0  0  0  0  0  0  0  0  0
   12.2211   47.2495   15.4060 H   0  0  0  0  0  0  0  0  0  0  0  0
   12.1070   49.0274   15.3326 H   0  0  0  0  0  0  0  0  0  0  0  0
   14.0506   47.3376   17.7228 H   0  0  0  0  0  0  0  0  0  0  0  0
   14.0581   50.1260   16.6385 H   0  0  0  0  0  0  0  0  0  0  0  0
   15.3526   50.4610   14.8418 H   0  0  0  0  0  0  0  0  0  0  0  0
   17.1157   48.2759   13.9153 H   0  0  0  0  0  0  0  0  0  0  0  0
   17.3819   49.8917   13.8004 H   0  0  0  0  0  0  0  0  0  0  0  0
   18.7643   49.1054   15.4381 H   0  0  0  0  0  0  0  0  0  0  0  0
   17.4398   48.2137   16.2193 H   0  0  0  0  0  0  0  0  0  0  0  0
   17.4423   50.0184   16.2511 H   0  0  0  0  0  0  0  0  0  0  0  0
   15.0434   48.1320   12.8490 H   0  0  0  0  0  0  0  0  0  0  0  0
   15.2206   49.8405   12.4380 H   0  0  0  0  0  0  0  0  0  0  0  0
   13.7476   49.2701   13.2410 H   0  0  0  0  0  0  0  0  0  0  0  0
   13.9784   49.8364   19.4367 H   0  0  0  0  0  0  0  0  0  0  0  0
   13.4390   47.5432   20.4639 H   0  0  0  0  0  0  0  0  0  0  0  0
   15.0565   47.0410   20.0526 H   0  0  0  0  0  0  0  0  0  0  0  0
   14.2925   49.4022   21.8389 H   0  0  0  0  0  0  0  0  0  0  0  0
   14.8702   47.8430   22.3829 H   0  0  0  0  0  0  0  0  0  0  0  0
   16.6842   49.5890   22.3203 H   0  0  0  0  0  0  0  0  0  0  0  0
   17.0270   48.1808   21.3471 H   0  0  0  0  0  0  0  0  0  0  0  0
   16.0579   50.9011   20.3848 H   0  0  0  0  0  0  0  0  0  0  0  0
   17.6066   50.1607   20.0533 H   0  0  0  0  0  0  0  0  0  0  0  0
   16.5715   48.4583   18.6306 H   0  0  0  0  0  0  0  0  0  0  0  0
   16.0674   50.0648   18.1247 H   0  0  0  0  0  0  0  0  0  0  0  0
    9.6524   48.6173   18.2161 H   0  0  0  0  0  0  0  0  0  0  0  0
    9.9393   47.0632   19.7526 H   0  0  0  0  0  0  0  0  0  0  0  0
   10.0381   44.2515   19.0034 H   0  0  0  0  0  0  0  0  0  0  0  0
    9.6153   44.1688   24.3241 H   0  0  0  0  0  0  0  0  0  0  0  0
   12.0554   44.4318   24.4442 H   0  0  0  0  0  0  0  0  0  0  0  0
   13.3253   44.9836   22.4031 H   0  0  0  0  0  0  0  0  0  0  0  0
   12.1858   45.1957   20.2676 H   0  0  0  0  0  0  0  0  0  0  0  0
    7.7389   43.3661   22.2043 H   0  0  0  0  0  0  0  0  0  0  0  0
    7.5698   44.8776   23.0911 H   0  0  0  0  0  0  0  0  0  0  0  0
    6.3181   44.8808   20.9252 H   0  0  0  0  0  0  0  0  0  0  0  0
    7.4788   46.1950   21.0576 H   0  0  0  0  0  0  0  0  0  0  0  0
    7.5634   45.0665   18.8239 H   0  0  0  0  0  0  0  0  0  0  0  0
    7.9474   43.5591   19.6015 H   0  0  0  0  0  0  0  0  0  0  0  0
    9.1141   49.5024   16.1213 H   0  0  0  0  0  0  0  0  0  0  0  0
    8.2531   47.9592   16.0003 H   0  0  0  0  0  0  0  0  0  0  0  0
  1 39  1  0  0  0  0
  1 40  1  0  0  0  0
  1 41  1  0  0  0  0
  1  2  1  0  0  0  0
  2  3  2  0  0  0  0
  2  4  1  0  0  0  0
  4 42  1  0  0  0  0
  5  4  1  0  0  0  0
  5 43  1  0  0  0  0
  5 38  1  0  0  0  0
  5  6  1  0  0  0  0
  6  7  1  0  0  0  0
  6 44  1  0  0  0  0
  6 45  1  0  0  0  0
 24  7  1  0  0  0  0
  7  8  1  0  0  0  0
  8  9  2  0  0  0  0
 10  8  1  0  0  0  0
 10 46  1  0  0  0  0
 10 11  1  0  0  0  0
 10 18  1  0  0  0  0
 11 47  1  0  0  0  0
 11 12  1  0  0  0  0
 12 13  2  0  0  0  0
 14 12  1  0  0  0  0
 14 48  1  0  0  0  0
 14 17  1  0  0  0  0
 14 15  1  0  0  0  0
 15 49  1  0  0  0  0
 15 50  1  0  0  0  0
 15 16  1  0  0  0  0
 16 51  1  0  0  0  0
 16 52  1  0  0  0  0
 16 53  1  0  0  0  0
 17 54  1  0  0  0  0
 17 55  1  0  0  0  0
 17 56  1  0  0  0  0
 18 57  1  0  0  0  0
 18 19  1  0  0  0  0
 18 23  1  0  0  0  0
 19 58  1  0  0  0  0
 19 59  1  0  0  0  0
 19 20  1  0  0  0  0
 20 60  1  0  0  0  0
 20 61  1  0  0  0  0
 20 21  1  0  0  0  0
 21 62  1  0  0  0  0
 21 63  1  0  0  0  0
 21 22  1  0  0  0  0
 22 64  1  0  0  0  0
 22 65  1  0  0  0  0
 22 23  1  0  0  0  0
 23 66  1  0  0  0  0
 23 67  1  0  0  0  0
 24 38  1  0  0  0  0
 24 68  1  0  0  0  0
 24 25  1  0  0  0  0
 25 26  2  0  0  0  0
 25 27  1  0  0  0  0
 27 69  1  0  0  0  0
 28 27  1  0  0  0  0
 28 70  1  0  0  0  0
 28 29  1  0  0  0  0
 28 37  1  0  0  0  0
 29 30  2  0  0  0  0
 29 34  1  0  0  0  0
 30 35  1  0  0  0  0
 30 31  1  0  0  0  0
 31 71  1  0  0  0  0
 31 32  2  0  0  0  0
 32 72  1  0  0  0  0
 32 33  1  0  0  0  0
 33 73  1  0  0  0  0
 33 34  2  0  0  0  0
 34 74  1  0  0  0  0
 35 75  1  0  0  0  0
 35 76  1  0  0  0  0
 35 36  1  0  0  0  0
 36 77  1  0  0  0  0
 36 78  1  0  0  0  0
 36 37  1  0  0  0  0
 37 79  1  0  0  0  0
 37 80  1  0  0  0  0
 38 81  1  0  0  0  0
 38 82  1  0  0  0  0
M  ZZC   1 c1
M  ZZC   2 c2
M  ZZC   3 o1
M  ZZC   4 n1
M  ZZC   5 c3
M  ZZC   6 c4
M  ZZC   7 n2
M  ZZC   8 c5
M  ZZC   9 o2
M  ZZC  10 c6
M  ZZC  11 n3
M  ZZC  12 c7
M  ZZC  13 o3
M  ZZC  14 c8
M  ZZC  15 n4
M  ZZC  16 c9
M  ZZC  17 c10
M  ZZC  18 c11
M  ZZC  19 c12
M  ZZC  20 c13
M  ZZC  21 c14
M  ZZC  22 c15
M  ZZC  23 c16
M  ZZC  24 c17
M  ZZC  25 c18
M  ZZC  26 o4
M  ZZC  27 n5
M  ZZC  28 c19
M  ZZC  29 c20
M  ZZC  30 c21
M  ZZC  31 c22
M  ZZC  32 c23
M  ZZC  33 c24
M  ZZC  34 c25
M  ZZC  35 c26
M  ZZC  36 c27
M  ZZC  37 c28
M  ZZC  38 c29
M  ZZC  39 h11
M  ZZC  40 h12
M  ZZC  41 h13
M  ZZC  42 h01
M  ZZC  43 h31
M  ZZC  44 h41
M  ZZC  45 h42
M  ZZC  46 h61
M  ZZC  47 h02
M  ZZC  48 h81
M  ZZC  49 h03
M  ZZC  50 h04
M  ZZC  51 h91
M  ZZC  52 h92
M  ZZC  53 h93
M  ZZC  54 h101
M  ZZC  55 h102
M  ZZC  56 h103
M  ZZC  57 h111
M  ZZC  58 h121
M  ZZC  59 h122
M  ZZC  60 h131
M  ZZC  61 h132
M  ZZC  62 h141
M  ZZC  63 h142
M  ZZC  64 h151
M  ZZC  65 h152
M  ZZC  66 h161
M  ZZC  67 h162
M  ZZC  68 h171
M  ZZC  69 h51
M  ZZC  70 h191
M  ZZC  71 h221
M  ZZC  72 h231
M  ZZC  73 h241
M  ZZC  74 h251
M  ZZC  75 h261
M  ZZC  76 h262
M  ZZC  77 h271
M  ZZC  78 h272
M  ZZC  79 h281
M  ZZC  80 h282
M  ZZC  81 h291
M  ZZC  82 h292
M  ZZM   1 1
M  ZZI   1 111
M  ZZM   2 3
M  ZZI   2 121
M  ZZM   3 7
M  ZZI   3 81
M  ZZM   4 10
M  ZZI   4 211
M  ZZM   5 1
M  ZZI   5 113
M  ZZM   6 1
M  ZZI   6 112
M  ZZM   7 10
M  ZZI   7 192
M  ZZM   8 3
M  ZZI   8 121
M  ZZM   9 7
M  ZZI   9 81
M  ZZM  10 1
M  ZZI  10 113
M  ZZM  11 10
M  ZZI  11 211
M  ZZM  12 3
M  ZZI  12 121
M  ZZM  13 7
M  ZZI  13 81
M  ZZM  14 1
M  ZZI  14 113
M  ZZM  15 34
M  ZZI  15 231
M  ZZM  16 1
M  ZZI  16 111
M  ZZM  17 1
M  ZZI  17 111
M  ZZM  18 1
M  ZZI  18 113
M  ZZM  19 1
M  ZZI  19 112
M  ZZM  20 1
M  ZZI  20 112
M  ZZM  21 1
M  ZZI  21 112
M  ZZM  22 1
M  ZZI  22 112
M  ZZM  23 1
M  ZZI  23 112
M  ZZM  24 1
M  ZZI  24 113
M  ZZM  25 3
M  ZZI  25 121
M  ZZM  26 7
M  ZZI  26 81
M  ZZM  27 10
M  ZZI  27 211
M  ZZM  28 1
M  ZZI  28 113
M  ZZM  29 37
M  ZZI  29 124
M  ZZM  30 37
M  ZZI  30 124
M  ZZM  31 37
M  ZZI  31 125
M  ZZM  32 37
M  ZZI  32 125
M  ZZM  33 37
M  ZZI  33 125
M  ZZM  34 37
M  ZZI  34 125
M  ZZM  35 1
M  ZZI  35 112
M  ZZM  36 1
M  ZZI  36 112
M  ZZM  37 1
M  ZZI  37 112
M  ZZM  38 1
M  ZZI  38 112
M  ZZM  39 5
M  ZZI  39 1
M  ZZM  40 5
M  ZZI  40 1
M  ZZM  41 5
M  ZZI  41 1
M  ZZM  42 28
M  ZZI  42 11
M  ZZM  43 5
M  ZZI  43 1
M  ZZM  44 5
M  ZZI  44 1
M  ZZM  45 5
M  ZZI  45 1
M  ZZM  46 5
M  ZZI  46 1
M  ZZM  47 28
M  ZZI  47 11
M  ZZM  48 5
M  ZZI  48 1
M  ZZM  49 36
M  ZZI  49 17
M  ZZM  50 36
M  ZZI  50 17
M  ZZM  51 5
M  ZZI  51 1
M  ZZM  52 5
M  ZZI  52 1
M  ZZM  53 5
M  ZZI  53 1
M  ZZM  54 5
M  ZZI  54 1
M  ZZM  55 5
M  ZZI  55 1
M  ZZM  56 5
M  ZZI  56 1
M  ZZM  57 5
M  ZZI  57 1
M  ZZM  58 5
M  ZZI  58 1
M  ZZM  59 5
M  ZZI  59 1
M  ZZM  60 5
M  ZZI  60 1
M  ZZM  61 5
M  ZZI  61 1
M  ZZM  62 5
M  ZZI  62 1
M  ZZM  63 5
M  ZZI  63 1
M  ZZM  64 5
M  ZZI  64 1
M  ZZM  65 5
M  ZZI  65 1
M  ZZM  66 5
M  ZZI  66 1
M  ZZM  67 5
M  ZZI  67 1
M  ZZM  68 5
M  ZZI  68 1
M  ZZM  69 28
M  ZZI  69 11
M  ZZM  70 5
M  ZZI  70 1
M  ZZM  71 5
M  ZZI  71 1
M  ZZM  72 5
M  ZZI  72 1
M  ZZM  73 5
M  ZZI  73 1
M  ZZM  74 5
M  ZZI  74 1
M  ZZM  75 5
M  ZZI  75 1
M  ZZM  76 5
M  ZZI  76 1
M  ZZM  77 5
M  ZZI  77 1
M  ZZM  78 5
M  ZZI  78 1
M  ZZM  79 5
M  ZZI  79 1
M  ZZM  80 5
M  ZZI  80 1
M  ZZM  81 5
M  ZZI  81 1
M  ZZM  82 5
M  ZZI  82 1
M  CHG  1  15   1
M  END
> <IX>
1

> <NAME>
IAPBIR2_6W8L_3.pdb

> <Score>
-19.405474

> <Natom>
82

> <Nflex>
9

> <Hbond>
-1.552414

> <Hphob>
-7.093803

> <VwInt>
-52.769239

> <Dsolv>
12.278914

> <SolEl>
25.499736

> <Eintl>
17.67535

> <RecConf>
ND

> <projPath>
IAPBIR2_maps/

> <NAME_>
IAPBIR2_6W8L_3.pdb

$$$$
