IAPBIR2_5UIU_5.pdb
  MOLSOFT 04032206403D

 82 85  0  0  1  0  0  0  0  0999 V2000
   14.6754   51.0530   19.4972 O   0  0  0  0  0  0  0  0  0  0  0  0
   15.4858   50.1691   19.2561 C   0  0  0  0  0  0  0  0  0  0  0  0
   15.4765   49.3929   18.1084 N   0  0  0  0  0  0  0  0  0  0  0  0
   14.3743   49.4547   17.1445 C   0  0  2  0  0  0  0  0  0  0  0  0
   13.3414   48.4013   17.5978 C   0  0  0  0  0  0  0  0  0  0  0  0
   13.5688   47.6891   18.5665 O   0  0  0  0  0  0  0  0  0  0  0  0
   12.0893   48.3679   16.9797 N   0  0  0  0  0  0  0  0  0  0  0  0
   10.9116   48.0219   17.7684 C   0  0  2  0  0  0  0  0  0  0  0  0
   10.6738   46.5282   17.9922 C   0  0  0  0  0  0  0  0  0  0  0  0
   10.7970   45.6883   17.1075 O   0  0  0  0  0  0  0  0  0  0  0  0
   10.2451   46.2608   19.2811 N   0  0  0  0  0  0  0  0  0  0  0  0
    9.8849   44.9346   19.7413 C   0  0  1  0  0  0  0  0  0  0  0  0
   10.3577   44.7334   21.1648 C   0  0  0  0  0  0  0  0  0  0  0  0
    9.4698   44.5722   22.2352 C   0  0  0  0  0  0  0  0  0  0  0  0
    9.9691   44.3944   23.5224 C   0  0  0  0  0  0  0  0  0  0  0  0
   11.3277   44.4282   23.7663 C   0  0  0  0  0  0  0  0  0  0  0  0
   12.2006   44.6107   22.7186 C   0  0  0  0  0  0  0  0  0  0  0  0
   11.7228   44.7543   21.4336 C   0  0  0  0  0  0  0  0  0  0  0  0
    7.9807   44.5627   22.0252 C   0  0  0  0  0  0  0  0  0  0  0  0
    7.5803   45.2477   20.7255 C   0  0  0  0  0  0  0  0  0  0  0  0
    8.3856   44.7031   19.5574 C   0  0  0  0  0  0  0  0  0  0  0  0
    9.7428   48.6287   17.0012 C   0  0  0  0  0  0  0  0  0  0  0  0
   10.2112   48.6137   15.5553 C   0  0  2  0  0  0  0  0  0  0  0  0
    9.9287   47.3212   14.9385 N   0  0  0  0  0  0  0  0  0  0  0  0
    9.1317   47.1920   13.8191 C   0  0  0  0  0  0  0  0  0  0  0  0
    8.6275   48.1221   13.2082 O   0  0  0  0  0  0  0  0  0  0  0  0
    8.9009   45.7624   13.4169 C   0  0  0  0  0  0  0  0  0  0  0  0
   11.7055   48.8893   15.6822 C   0  0  0  0  0  0  0  0  0  0  0  0
   14.8868   49.4272   15.6911 C   0  0  0  0  0  0  0  0  0  0  0  0
   15.8591   50.5873   15.4382 C   0  0  0  0  0  0  0  0  0  0  0  0
   16.2372   50.6655   13.9688 C   0  0  0  0  0  0  0  0  0  0  0  0
   16.8263   49.3523   13.4885 C   0  0  0  0  0  0  0  0  0  0  0  0
   15.9259   48.1614   13.7965 C   0  0  0  0  0  0  0  0  0  0  0  0
   15.5312   48.1075   15.2656 C   0  0  0  0  0  0  0  0  0  0  0  0
   16.5913   49.8003   20.2395 C   0  0  1  0  0  0  0  0  0  0  0  0
   16.9635   50.9678   21.1377 N   0  3  0  0  0  0  0  0  0  0  0  0
   18.2287   50.8217   21.9228 C   0  0  0  0  0  0  0  0  0  0  0  0
   16.1125   48.6214   21.0879 C   0  0  0  0  0  0  0  0  0  0  0  0
   16.1694   48.6603   17.9960 H   0  0  0  0  0  0  0  0  0  0  0  0
   13.8730   50.4175   17.2930 H   0  0  0  0  0  0  0  0  0  0  0  0
   11.0093   48.5070   18.7469 H   0  0  0  0  0  0  0  0  0  0  0  0
   10.1708   47.0142   19.9565 H   0  0  0  0  0  0  0  0  0  0  0  0
   10.3940   44.2186   19.0975 H   0  0  0  0  0  0  0  0  0  0  0  0
    9.2905   44.2394   24.3557 H   0  0  0  0  0  0  0  0  0  0  0  0
   11.7102   44.3151   24.7751 H   0  0  0  0  0  0  0  0  0  0  0  0
   13.2651   44.6358   22.9017 H   0  0  0  0  0  0  0  0  0  0  0  0
   12.4361   44.9026   20.6320 H   0  0  0  0  0  0  0  0  0  0  0  0
    7.6321   43.5251   22.0304 H   0  0  0  0  0  0  0  0  0  0  0  0
    7.4834   45.0720   22.8574 H   0  0  0  0  0  0  0  0  0  0  0  0
    6.5117   45.0938   20.5456 H   0  0  0  0  0  0  0  0  0  0  0  0
    7.7337   46.3297   20.8076 H   0  0  0  0  0  0  0  0  0  0  0  0
    8.0354   45.1473   18.6195 H   0  0  0  0  0  0  0  0  0  0  0  0
    8.1968   43.6318   19.4711 H   0  0  0  0  0  0  0  0  0  0  0  0
    8.7965   48.0975   17.1542 H   0  0  0  0  0  0  0  0  0  0  0  0
    9.6006   49.6674   17.3218 H   0  0  0  0  0  0  0  0  0  0  0  0
    9.7195   49.3962   14.9687 H   0  0  0  0  0  0  0  0  0  0  0  0
   10.2883   46.4831   15.3939 H   0  0  0  0  0  0  0  0  0  0  0  0
    8.7806   45.6977   12.3318 H   0  0  0  0  0  0  0  0  0  0  0  0
    7.9993   45.3887   13.9096 H   0  0  0  0  0  0  0  0  0  0  0  0
    9.7508   45.1414   13.7037 H   0  0  0  0  0  0  0  0  0  0  0  0
   11.9057   49.9661   15.6777 H   0  0  0  0  0  0  0  0  0  0  0  0
   12.2919   48.4011   14.8984 H   0  0  0  0  0  0  0  0  0  0  0  0
   14.0373   49.5939   15.0285 H   0  0  0  0  0  0  0  0  0  0  0  0
   15.4094   51.5381   15.7424 H   0  0  0  0  0  0  0  0  0  0  0  0
   16.7710   50.4656   16.0341 H   0  0  0  0  0  0  0  0  0  0  0  0
   15.3531   50.9121   13.3713 H   0  0  0  0  0  0  0  0  0  0  0  0
   16.9592   51.4734   13.8143 H   0  0  0  0  0  0  0  0  0  0  0  0
   17.0068   49.4105   12.4121 H   0  0  0  0  0  0  0  0  0  0  0  0
   17.7960   49.2127   13.9736 H   0  0  0  0  0  0  0  0  0  0  0  0
   15.0301   48.2182   13.1726 H   0  0  0  0  0  0  0  0  0  0  0  0
   16.4294   47.2333   13.5239 H   0  0  0  0  0  0  0  0  0  0  0  0
   16.4245   47.9045   15.8630 H   0  0  0  0  0  0  0  0  0  0  0  0
   14.8436   47.2734   15.4273 H   0  0  0  0  0  0  0  0  0  0  0  0
   17.4808   49.5464   19.6591 H   0  0  0  0  0  0  0  0  0  0  0  0
   17.0576   51.8099   20.5528 H   0  0  0  0  0  0  0  0  0  0  0  0
   16.1788   51.1755   21.7694 H   0  0  0  0  0  0  0  0  0  0  0  0
   18.3905   51.7287   22.5104 H   0  0  0  0  0  0  0  0  0  0  0  0
   19.0438   50.6881   21.2072 H   0  0  0  0  0  0  0  0  0  0  0  0
   18.1444   49.9381   22.5616 H   0  0  0  0  0  0  0  0  0  0  0  0
   15.2598   48.9010   21.7131 H   0  0  0  0  0  0  0  0  0  0  0  0
   16.9002   48.2432   21.7423 H   0  0  0  0  0  0  0  0  0  0  0  0
   15.7833   47.7900   20.4595 H   0  0  0  0  0  0  0  0  0  0  0  0
  1  2  2  0  0  0  0
  2  3  1  0  0  0  0
 35  2  1  0  0  0  0
  4  3  1  0  0  0  0
  3 39  1  0  0  0  0
  4  5  1  0  0  0  0
  4 40  1  0  0  0  0
  4 29  1  0  0  0  0
  5  7  1  0  0  0  0
  5  6  2  0  0  0  0
  7 28  1  0  0  0  0
  8  7  1  0  0  0  0
  8  9  1  0  0  0  0
  8 41  1  0  0  0  0
  8 22  1  0  0  0  0
  9 11  1  0  0  0  0
  9 10  2  0  0  0  0
 12 11  1  0  0  0  0
 11 42  1  0  0  0  0
 12 13  1  0  0  0  0
 12 43  1  0  0  0  0
 12 21  1  0  0  0  0
 13 18  1  0  0  0  0
 13 14  2  0  0  0  0
 14 19  1  0  0  0  0
 14 15  1  0  0  0  0
 15 44  1  0  0  0  0
 15 16  2  0  0  0  0
 16 45  1  0  0  0  0
 16 17  1  0  0  0  0
 17 46  1  0  0  0  0
 17 18  2  0  0  0  0
 18 47  1  0  0  0  0
 19 20  1  0  0  0  0
 19 48  1  0  0  0  0
 19 49  1  0  0  0  0
 20 21  1  0  0  0  0
 20 50  1  0  0  0  0
 20 51  1  0  0  0  0
 21 52  1  0  0  0  0
 21 53  1  0  0  0  0
 22 54  1  0  0  0  0
 22 55  1  0  0  0  0
 23 22  1  0  0  0  0
 23 56  1  0  0  0  0
 23 24  1  0  0  0  0
 23 28  1  0  0  0  0
 24 57  1  0  0  0  0
 24 25  1  0  0  0  0
 25 26  2  0  0  0  0
 25 27  1  0  0  0  0
 27 58  1  0  0  0  0
 27 59  1  0  0  0  0
 27 60  1  0  0  0  0
 28 61  1  0  0  0  0
 28 62  1  0  0  0  0
 29 63  1  0  0  0  0
 29 30  1  0  0  0  0
 29 34  1  0  0  0  0
 30 64  1  0  0  0  0
 30 65  1  0  0  0  0
 30 31  1  0  0  0  0
 31 66  1  0  0  0  0
 31 67  1  0  0  0  0
 31 32  1  0  0  0  0
 32 68  1  0  0  0  0
 32 69  1  0  0  0  0
 32 33  1  0  0  0  0
 33 70  1  0  0  0  0
 33 71  1  0  0  0  0
 33 34  1  0  0  0  0
 34 72  1  0  0  0  0
 34 73  1  0  0  0  0
 35 74  1  0  0  0  0
 35 38  1  0  0  0  0
 35 36  1  0  0  0  0
 36 75  1  0  0  0  0
 36 76  1  0  0  0  0
 36 37  1  0  0  0  0
 37 77  1  0  0  0  0
 37 78  1  0  0  0  0
 37 79  1  0  0  0  0
 38 80  1  0  0  0  0
 38 81  1  0  0  0  0
 38 82  1  0  0  0  0
M  ZZC   1 o1
M  ZZC   2 c1
M  ZZC   3 n1
M  ZZC   4 c2
M  ZZC   5 c3
M  ZZC   6 o2
M  ZZC   7 n2
M  ZZC   8 c4
M  ZZC   9 c5
M  ZZC  10 o3
M  ZZC  11 n3
M  ZZC  12 c6
M  ZZC  13 c7
M  ZZC  14 c8
M  ZZC  15 c9
M  ZZC  16 c10
M  ZZC  17 c11
M  ZZC  18 c12
M  ZZC  19 c13
M  ZZC  20 c14
M  ZZC  21 c15
M  ZZC  22 c16
M  ZZC  23 c17
M  ZZC  24 n4
M  ZZC  25 c18
M  ZZC  26 o4
M  ZZC  27 c19
M  ZZC  28 c20
M  ZZC  29 c21
M  ZZC  30 c22
M  ZZC  31 c23
M  ZZC  32 c24
M  ZZC  33 c25
M  ZZC  34 c26
M  ZZC  35 c27
M  ZZC  36 n5
M  ZZC  37 c28
M  ZZC  38 c29
M  ZZC  39 h11
M  ZZC  40 h21
M  ZZC  41 h41
M  ZZC  42 h31
M  ZZC  43 h61
M  ZZC  44 h91
M  ZZC  45 h101
M  ZZC  46 h111
M  ZZC  47 h121
M  ZZC  48 h131
M  ZZC  49 h132
M  ZZC  50 h141
M  ZZC  51 h142
M  ZZC  52 h151
M  ZZC  53 h152
M  ZZC  54 h161
M  ZZC  55 h162
M  ZZC  56 h171
M  ZZC  57 h01
M  ZZC  58 h191
M  ZZC  59 h192
M  ZZC  60 h193
M  ZZC  61 h201
M  ZZC  62 h202
M  ZZC  63 h211
M  ZZC  64 h221
M  ZZC  65 h222
M  ZZC  66 h231
M  ZZC  67 h232
M  ZZC  68 h241
M  ZZC  69 h242
M  ZZC  70 h251
M  ZZC  71 h252
M  ZZC  72 h261
M  ZZC  73 h262
M  ZZC  74 h271
M  ZZC  75 h51
M  ZZC  76 h52
M  ZZC  77 h281
M  ZZC  78 h282
M  ZZC  79 h283
M  ZZC  80 h291
M  ZZC  81 h292
M  ZZC  82 h293
M  ZZM   1 7
M  ZZI   1 81
M  ZZM   2 3
M  ZZI   2 121
M  ZZM   3 10
M  ZZI   3 211
M  ZZM   4 1
M  ZZI   4 113
M  ZZM   5 3
M  ZZI   5 121
M  ZZM   6 7
M  ZZI   6 81
M  ZZM   7 10
M  ZZI   7 192
M  ZZM   8 1
M  ZZI   8 113
M  ZZM   9 3
M  ZZI   9 121
M  ZZM  10 7
M  ZZI  10 81
M  ZZM  11 10
M  ZZI  11 211
M  ZZM  12 1
M  ZZI  12 113
M  ZZM  13 37
M  ZZI  13 124
M  ZZM  14 37
M  ZZI  14 124
M  ZZM  15 37
M  ZZI  15 125
M  ZZM  16 37
M  ZZI  16 125
M  ZZM  17 37
M  ZZI  17 125
M  ZZM  18 37
M  ZZI  18 125
M  ZZM  19 1
M  ZZI  19 112
M  ZZM  20 1
M  ZZI  20 112
M  ZZM  21 1
M  ZZI  21 112
M  ZZM  22 1
M  ZZI  22 112
M  ZZM  23 1
M  ZZI  23 113
M  ZZM  24 10
M  ZZI  24 211
M  ZZM  25 3
M  ZZI  25 121
M  ZZM  26 7
M  ZZI  26 81
M  ZZM  27 1
M  ZZI  27 111
M  ZZM  28 1
M  ZZI  28 112
M  ZZM  29 1
M  ZZI  29 113
M  ZZM  30 1
M  ZZI  30 112
M  ZZM  31 1
M  ZZI  31 112
M  ZZM  32 1
M  ZZI  32 112
M  ZZM  33 1
M  ZZI  33 112
M  ZZM  34 1
M  ZZI  34 112
M  ZZM  35 1
M  ZZI  35 113
M  ZZM  36 34
M  ZZI  36 231
M  ZZM  37 1
M  ZZI  37 111
M  ZZM  38 1
M  ZZI  38 111
M  ZZM  39 28
M  ZZI  39 11
M  ZZM  40 5
M  ZZI  40 1
M  ZZM  41 5
M  ZZI  41 1
M  ZZM  42 28
M  ZZI  42 11
M  ZZM  43 5
M  ZZI  43 1
M  ZZM  44 5
M  ZZI  44 1
M  ZZM  45 5
M  ZZI  45 1
M  ZZM  46 5
M  ZZI  46 1
M  ZZM  47 5
M  ZZI  47 1
M  ZZM  48 5
M  ZZI  48 1
M  ZZM  49 5
M  ZZI  49 1
M  ZZM  50 5
M  ZZI  50 1
M  ZZM  51 5
M  ZZI  51 1
M  ZZM  52 5
M  ZZI  52 1
M  ZZM  53 5
M  ZZI  53 1
M  ZZM  54 5
M  ZZI  54 1
M  ZZM  55 5
M  ZZI  55 1
M  ZZM  56 5
M  ZZI  56 1
M  ZZM  57 28
M  ZZI  57 11
M  ZZM  58 5
M  ZZI  58 1
M  ZZM  59 5
M  ZZI  59 1
M  ZZM  60 5
M  ZZI  60 1
M  ZZM  61 5
M  ZZI  61 1
M  ZZM  62 5
M  ZZI  62 1
M  ZZM  63 5
M  ZZI  63 1
M  ZZM  64 5
M  ZZI  64 1
M  ZZM  65 5
M  ZZI  65 1
M  ZZM  66 5
M  ZZI  66 1
M  ZZM  67 5
M  ZZI  67 1
M  ZZM  68 5
M  ZZI  68 1
M  ZZM  69 5
M  ZZI  69 1
M  ZZM  70 5
M  ZZI  70 1
M  ZZM  71 5
M  ZZI  71 1
M  ZZM  72 5
M  ZZI  72 1
M  ZZM  73 5
M  ZZI  73 1
M  ZZM  74 5
M  ZZI  74 1
M  ZZM  75 36
M  ZZI  75 17
M  ZZM  76 36
M  ZZI  76 17
M  ZZM  77 5
M  ZZI  77 1
M  ZZM  78 5
M  ZZI  78 1
M  ZZM  79 5
M  ZZI  79 1
M  ZZM  80 5
M  ZZI  80 1
M  ZZM  81 5
M  ZZI  81 1
M  ZZM  82 5
M  ZZI  82 1
M  CHG  1  36   1
M  END
> <IX>
1

> <NAME>
IAPBIR2_5UIU_5.pdb

> <Score>
-28.391171

> <Natom>
82

> <Nflex>
9

> <Hbond>
-2.913725

> <Hphob>
-6.021622

> <VwInt>
-57.202181

> <Dsolv>
14.34619

> <SolEl>
23.417698

> <Eintl>
14.336496

> <RecConf>
ND

> <projPath>
IAPBIR2_maps/

> <NAME_>
IAPBIR2_5UIU_5.pdb

$$$$
