Mdm2_3K6P_24.pdb
  MOLSOFT 04032206383D

 70 74  0  0  1  0  0  0  0  0999 V2000
   25.6314   15.0210   35.1709 Cl  0  0  0  0  0  0  0  0  0  0  0  0
   24.5317   16.2807   35.6033 C   0  0  0  0  0  0  0  0  0  0  0  0
   24.7527   17.0282   36.7463 C   0  0  0  0  0  0  0  0  0  0  0  0
   23.8697   18.0365   37.0909 C   0  0  0  0  0  0  0  0  0  0  0  0
   22.7507   18.3085   36.3022 C   0  0  0  0  0  0  0  0  0  0  0  0
   21.7520   19.3963   36.6592 C   0  0  1  0  0  0  0  0  0  0  0  0
   21.2099   19.1981   37.9816 N   0  0  0  0  0  0  0  0  0  0  0  0
   20.2566   18.2246   38.2245 C   0  0  0  0  0  0  0  0  0  0  0  0
   19.3067   18.0858   37.4711 O   0  0  0  0  0  0  0  0  0  0  0  0
   20.4151   17.4365   39.3584 N   0  0  0  0  0  0  0  0  0  0  0  0
   21.6736   17.2624   40.0886 C   0  0  0  0  0  0  0  0  0  0  0  0
   22.1720   15.8190   40.0474 C   0  0  0  0  0  0  0  0  0  0  0  0
   23.3139   15.5317   40.3710 O   0  0  0  0  0  0  0  0  0  0  0  0
   21.2505   14.8324   39.7463 N   0  0  0  0  0  0  0  0  0  0  0  0
   19.9096   15.0860   39.2511 C   0  0  0  0  0  0  0  0  0  0  0  0
   19.3978   16.4509   39.6792 C   0  0  0  0  0  0  0  0  0  0  0  0
   21.5519   20.2985   38.7474 C   0  0  0  0  0  0  0  0  0  0  0  0
   21.1010   20.4711   40.1602 C   0  0  0  0  0  0  0  0  0  0  0  0
   22.0207   20.8129   41.1536 C   0  0  0  0  0  0  0  0  0  0  0  0
   23.3750   20.8293   40.7817 O   0  0  0  0  0  0  0  0  0  0  0  0
   24.3574   20.8640   41.8360 C   0  0  0  0  0  0  0  0  0  0  0  0
   24.7588   22.3069   42.1411 C   0  0  0  0  0  0  0  0  0  0  0  0
   25.5629   20.0894   41.3242 C   0  0  0  0  0  0  0  0  0  0  0  0
   21.5508   21.1318   42.4300 C   0  0  0  0  0  0  0  0  0  0  0  0
   20.1934   21.1114   42.7034 C   0  0  0  0  0  0  0  0  0  0  0  0
   19.8301   21.5104   43.9939 O   0  0  0  0  0  0  0  0  0  0  0  0
   18.4989   22.0382   44.0868 C   0  0  0  0  0  0  0  0  0  0  0  0
   19.2883   20.7035   41.7276 C   0  0  0  0  0  0  0  0  0  0  0  0
   19.7432   20.3915   40.4581 C   0  0  0  0  0  0  0  0  0  0  0  0
   22.2567   21.2068   38.1460 N   0  0  0  0  0  0  0  0  0  0  0  0
   22.2786   20.8353   36.7147 C   0  0  1  0  0  0  0  0  0  0  0  0
   23.5718   21.1472   35.9929 C   0  0  0  0  0  0  0  0  0  0  0  0
   23.6201   21.0904   34.6004 C   0  0  0  0  0  0  0  0  0  0  0  0
   24.7866   21.3875   33.9168 C   0  0  0  0  0  0  0  0  0  0  0  0
   25.9206   21.7497   34.6220 C   0  0  0  0  0  0  0  0  0  0  0  0
   27.3789   22.1231   33.7747 Cl  0  0  0  0  0  0  0  0  0  0  0  0
   25.8913   21.8188   36.0030 C   0  0  0  0  0  0  0  0  0  0  0  0
   24.7230   21.5215   36.6835 C   0  0  0  0  0  0  0  0  0  0  0  0
   22.5524   17.5441   35.1541 C   0  0  0  0  0  0  0  0  0  0  0  0
   23.4336   16.5380   34.8034 C   0  0  0  0  0  0  0  0  0  0  0  0
   25.6143   16.8312   37.3769 H   0  0  0  0  0  0  0  0  0  0  0  0
   24.0650   18.6154   37.9891 H   0  0  0  0  0  0  0  0  0  0  0  0
   20.9326   19.3474   35.9379 H   0  0  0  0  0  0  0  0  0  0  0  0
   22.4618   17.9011   39.6880 H   0  0  0  0  0  0  0  0  0  0  0  0
   21.4959   17.5292   41.1357 H   0  0  0  0  0  0  0  0  0  0  0  0
   21.5990   13.8802   39.7520 H   0  0  0  0  0  0  0  0  0  0  0  0
   19.9601   15.0186   38.1590 H   0  0  0  0  0  0  0  0  0  0  0  0
   19.2538   14.2876   39.6103 H   0  0  0  0  0  0  0  0  0  0  0  0
   19.2240   16.4863   40.7605 H   0  0  0  0  0  0  0  0  0  0  0  0
   18.4504   16.6774   39.1804 H   0  0  0  0  0  0  0  0  0  0  0  0
   23.9980   20.3546   42.7359 H   0  0  0  0  0  0  0  0  0  0  0  0
   25.5324   22.3506   42.9131 H   0  0  0  0  0  0  0  0  0  0  0  0
   23.9061   22.8979   42.4851 H   0  0  0  0  0  0  0  0  0  0  0  0
   25.1400   22.8077   41.2453 H   0  0  0  0  0  0  0  0  0  0  0  0
   26.3708   20.0696   42.0619 H   0  0  0  0  0  0  0  0  0  0  0  0
   25.9474   20.5238   40.3954 H   0  0  0  0  0  0  0  0  0  0  0  0
   25.2819   19.0576   41.0912 H   0  0  0  0  0  0  0  0  0  0  0  0
   22.2181   21.4427   43.2241 H   0  0  0  0  0  0  0  0  0  0  0  0
   18.4068   22.5472   45.0496 H   0  0  0  0  0  0  0  0  0  0  0  0
   17.7554   21.2349   44.0639 H   0  0  0  0  0  0  0  0  0  0  0  0
   18.3043   22.7784   43.3028 H   0  0  0  0  0  0  0  0  0  0  0  0
   18.2235   20.6492   41.9249 H   0  0  0  0  0  0  0  0  0  0  0  0
   19.0192   20.1314   39.6929 H   0  0  0  0  0  0  0  0  0  0  0  0
   21.5302   21.4766   36.2354 H   0  0  0  0  0  0  0  0  0  0  0  0
   22.7376   20.8064   34.0340 H   0  0  0  0  0  0  0  0  0  0  0  0
   24.8051   21.3329   32.8327 H   0  0  0  0  0  0  0  0  0  0  0  0
   26.7752   22.1134   36.5600 H   0  0  0  0  0  0  0  0  0  0  0  0
   24.7179   21.5930   37.7675 H   0  0  0  0  0  0  0  0  0  0  0  0
   21.6982   17.7291   34.5116 H   0  0  0  0  0  0  0  0  0  0  0  0
   23.2550   15.9565   33.9042 H   0  0  0  0  0  0  0  0  0  0  0  0
  2  1  1  0  0  0  0
  2  3  1  0  0  0  0
  2 40  2  0  0  0  0
  3 41  1  0  0  0  0
  3  4  2  0  0  0  0
  4 42  1  0  0  0  0
  4  5  1  0  0  0  0
  5 39  2  0  0  0  0
  6  5  1  0  0  0  0
  6 43  1  0  0  0  0
  6 31  1  0  0  0  0
  6  7  1  0  0  0  0
  7 17  1  0  0  0  0
  7  8  1  0  0  0  0
  8  9  2  0  0  0  0
  8 10  1  0  0  0  0
 10 16  1  0  0  0  0
 10 11  1  0  0  0  0
 11 12  1  0  0  0  0
 11 44  1  0  0  0  0
 11 45  1  0  0  0  0
 12 14  1  0  0  0  0
 12 13  2  0  0  0  0
 14 15  1  0  0  0  0
 14 46  1  0  0  0  0
 15 16  1  0  0  0  0
 15 47  1  0  0  0  0
 15 48  1  0  0  0  0
 16 49  1  0  0  0  0
 16 50  1  0  0  0  0
 17 30  2  0  0  0  0
 17 18  1  0  0  0  0
 18 19  2  0  0  0  0
 18 29  1  0  0  0  0
 19 20  1  0  0  0  0
 19 24  1  0  0  0  0
 20 21  1  0  0  0  0
 21 51  1  0  0  0  0
 21 23  1  0  0  0  0
 21 22  1  0  0  0  0
 22 52  1  0  0  0  0
 22 53  1  0  0  0  0
 22 54  1  0  0  0  0
 23 55  1  0  0  0  0
 23 56  1  0  0  0  0
 23 57  1  0  0  0  0
 24 58  1  0  0  0  0
 24 25  2  0  0  0  0
 25 28  1  0  0  0  0
 25 26  1  0  0  0  0
 26 27  1  0  0  0  0
 27 59  1  0  0  0  0
 27 60  1  0  0  0  0
 27 61  1  0  0  0  0
 28 62  1  0  0  0  0
 28 29  2  0  0  0  0
 29 63  1  0  0  0  0
 31 30  1  0  0  0  0
 31 64  1  0  0  0  0
 31 32  1  0  0  0  0
 32 33  1  0  0  0  0
 32 38  2  0  0  0  0
 33 65  1  0  0  0  0
 33 34  2  0  0  0  0
 34 66  1  0  0  0  0
 34 35  1  0  0  0  0
 35 36  1  0  0  0  0
 35 37  2  0  0  0  0
 37 67  1  0  0  0  0
 37 38  1  0  0  0  0
 38 68  1  0  0  0  0
 39 69  1  0  0  0  0
 39 40  1  0  0  0  0
 40 70  1  0  0  0  0
M  ZZC   1 &Cl1
M  ZZC   2 c1
M  ZZC   3 c2
M  ZZC   4 c3
M  ZZC   5 c4
M  ZZC   6 c5
M  ZZC   7 n1
M  ZZC   8 c6
M  ZZC   9 o1
M  ZZC  10 n2
M  ZZC  11 c7
M  ZZC  12 c8
M  ZZC  13 o2
M  ZZC  14 n3
M  ZZC  15 c9
M  ZZC  16 c10
M  ZZC  17 c11
M  ZZC  18 c12
M  ZZC  19 c13
M  ZZC  20 o3
M  ZZC  21 c14
M  ZZC  22 c15
M  ZZC  23 c16
M  ZZC  24 c17
M  ZZC  25 c18
M  ZZC  26 o4
M  ZZC  27 c19
M  ZZC  28 c20
M  ZZC  29 c21
M  ZZC  30 n4
M  ZZC  31 c22
M  ZZC  32 c23
M  ZZC  33 c24
M  ZZC  34 c25
M  ZZC  35 c26
M  ZZC  36 &Cl2
M  ZZC  37 c27
M  ZZC  38 c28
M  ZZC  39 c29
M  ZZC  40 c30
M  ZZC  41 h21
M  ZZC  42 h31
M  ZZC  43 h51
M  ZZC  44 h71
M  ZZC  45 h72
M  ZZC  46 h01
M  ZZC  47 h91
M  ZZC  48 h92
M  ZZC  49 h101
M  ZZC  50 h102
M  ZZC  51 h141
M  ZZC  52 h151
M  ZZC  53 h152
M  ZZC  54 h153
M  ZZC  55 h161
M  ZZC  56 h162
M  ZZC  57 h163
M  ZZC  58 h171
M  ZZC  59 h191
M  ZZC  60 h192
M  ZZC  61 h193
M  ZZC  62 h201
M  ZZC  63 h211
M  ZZC  64 h221
M  ZZC  65 h241
M  ZZC  66 h251
M  ZZC  67 h271
M  ZZC  68 h281
M  ZZC  69 h291
M  ZZC  70 h301
M  ZZM   1 12
M  ZZI   1 92
M  ZZM   2 37
M  ZZI   2 124
M  ZZM   3 37
M  ZZI   3 125
M  ZZM   4 37
M  ZZI   4 125
M  ZZM   5 37
M  ZZI   5 124
M  ZZM   6 1
M  ZZI   6 113
M  ZZM   7 10
M  ZZI   7 192
M  ZZM   8 3
M  ZZI   8 121
M  ZZM   9 7
M  ZZI   9 81
M  ZZM  10 10
M  ZZI  10 192
M  ZZM  11 1
M  ZZI  11 112
M  ZZM  12 3
M  ZZI  12 121
M  ZZM  13 7
M  ZZI  13 81
M  ZZM  14 10
M  ZZI  14 211
M  ZZM  15 1
M  ZZI  15 112
M  ZZM  16 1
M  ZZI  16 112
M  ZZM  17 3
M  ZZI  17 121
M  ZZM  18 37
M  ZZI  18 124
M  ZZM  19 37
M  ZZI  19 124
M  ZZM  20 6
M  ZZI  20 59
M  ZZM  21 1
M  ZZI  21 113
M  ZZM  22 1
M  ZZI  22 111
M  ZZM  23 1
M  ZZI  23 111
M  ZZM  24 37
M  ZZI  24 125
M  ZZM  25 37
M  ZZI  25 124
M  ZZM  26 6
M  ZZI  26 59
M  ZZM  27 1
M  ZZI  27 111
M  ZZM  28 37
M  ZZI  28 125
M  ZZM  29 37
M  ZZI  29 125
M  ZZM  30 9
M  ZZI  30 220
M  ZZM  31 1
M  ZZI  31 113
M  ZZM  32 37
M  ZZI  32 124
M  ZZM  33 37
M  ZZI  33 125
M  ZZM  34 37
M  ZZI  34 125
M  ZZM  35 37
M  ZZI  35 124
M  ZZM  36 12
M  ZZI  36 92
M  ZZM  37 37
M  ZZI  37 125
M  ZZM  38 37
M  ZZI  38 125
M  ZZM  39 37
M  ZZI  39 125
M  ZZM  40 37
M  ZZI  40 125
M  ZZM  41 5
M  ZZI  41 1
M  ZZM  42 5
M  ZZI  42 1
M  ZZM  43 5
M  ZZI  43 1
M  ZZM  44 5
M  ZZI  44 1
M  ZZM  45 5
M  ZZI  45 1
M  ZZM  46 28
M  ZZI  46 11
M  ZZM  47 5
M  ZZI  47 1
M  ZZM  48 5
M  ZZI  48 1
M  ZZM  49 5
M  ZZI  49 1
M  ZZM  50 5
M  ZZI  50 1
M  ZZM  51 5
M  ZZI  51 1
M  ZZM  52 5
M  ZZI  52 1
M  ZZM  53 5
M  ZZI  53 1
M  ZZM  54 5
M  ZZI  54 1
M  ZZM  55 5
M  ZZI  55 1
M  ZZM  56 5
M  ZZI  56 1
M  ZZM  57 5
M  ZZI  57 1
M  ZZM  58 5
M  ZZI  58 1
M  ZZM  59 5
M  ZZI  59 1
M  ZZM  60 5
M  ZZI  60 1
M  ZZM  61 5
M  ZZI  61 1
M  ZZM  62 5
M  ZZI  62 1
M  ZZM  63 5
M  ZZI  63 1
M  ZZM  64 5
M  ZZI  64 1
M  ZZM  65 5
M  ZZI  65 1
M  ZZM  66 5
M  ZZI  66 1
M  ZZM  67 5
M  ZZI  67 1
M  ZZM  68 5
M  ZZI  68 1
M  ZZM  69 5
M  ZZI  69 1
M  ZZM  70 5
M  ZZI  70 1
M  END
> <IX>
1

> <NAME>
Mdm2_3K6P_24.pdb

> <Score>
-17.512213

> <Natom>
70

> <Nflex>
5

> <Hbond>
-2.091745

> <Hphob>
-5.887288

> <VwInt>
-24.715142

> <Dsolv>
10.176861

> <SolEl>
6.021838

> <Eintl>
3.054111

> <RecConf>
ND

> <projPath>
Mdm2_maps/

> <NAME_>
Mdm2_3K6P_24.pdb

$$$$
