Mdm2_6NTU_2.pdb
  MOLSOFT 04032206393D

 70 74  0  0  1  0  0  0  0  0999 V2000
   23.3093   11.7691   40.9393 Cl  0  0  0  0  0  0  0  0  0  0  0  0
   22.6220   13.1428   40.1489 C   0  0  0  0  0  0  0  0  0  0  0  0
   21.9968   14.1255   40.8940 C   0  0  0  0  0  0  0  0  0  0  0  0
   21.4441   15.2244   40.2597 C   0  0  0  0  0  0  0  0  0  0  0  0
   21.5023   15.3585   38.8691 C   0  0  0  0  0  0  0  0  0  0  0  0
   20.8972   16.5473   38.1257 C   0  0  2  0  0  0  0  0  0  0  0  0
   21.5263   17.7993   38.4725 N   0  0  0  0  0  0  0  0  0  0  0  0
   22.8312   18.0884   38.0954 C   0  0  0  0  0  0  0  0  0  0  0  0
   23.6970   17.2276   38.0730 O   0  0  0  0  0  0  0  0  0  0  0  0
   23.1268   19.4115   37.7803 N   0  0  0  0  0  0  0  0  0  0  0  0
   22.1408   20.3441   37.2088 C   0  0  0  0  0  0  0  0  0  0  0  0
   22.7273   21.5229   36.4288 C   0  0  0  0  0  0  0  0  0  0  0  0
   22.1031   22.1020   35.5547 O   0  0  0  0  0  0  0  0  0  0  0  0
   23.9534   21.9815   36.8520 N   0  0  0  0  0  0  0  0  0  0  0  0
   24.6820   21.3093   37.8960 C   0  0  0  0  0  0  0  0  0  0  0  0
   24.5303   19.8069   37.7383 C   0  0  0  0  0  0  0  0  0  0  0  0
   20.7037   18.3860   39.4218 C   0  0  0  0  0  0  0  0  0  0  0  0
   21.1537   19.4360   40.3835 C   0  0  0  0  0  0  0  0  0  0  0  0
   20.1897   20.2890   40.9037 C   0  0  0  0  0  0  0  0  0  0  0  0
   20.5254   21.1799   41.9107 C   0  0  0  0  0  0  0  0  0  0  0  0
   19.5189   21.9929   42.4357 O   0  0  0  0  0  0  0  0  0  0  0  0
   18.8609   21.3389   43.5439 C   0  0  0  0  0  0  0  0  0  0  0  0
   17.6264   20.5722   43.0714 C   0  0  0  0  0  0  0  0  0  0  0  0
   18.4365   22.4222   44.5187 C   0  0  0  0  0  0  0  0  0  0  0  0
   21.8437   21.2952   42.3495 C   0  0  0  0  0  0  0  0  0  0  0  0
   22.1135   22.2696   43.3188 O   0  0  0  0  0  0  0  0  0  0  0  0
   23.5068   22.4788   43.5891 C   0  0  0  0  0  0  0  0  0  0  0  0
   22.8059   20.4305   41.8269 C   0  0  0  0  0  0  0  0  0  0  0  0
   22.4554   19.4890   40.8752 C   0  0  0  0  0  0  0  0  0  0  0  0
   19.5005   17.9045   39.4922 N   0  0  0  0  0  0  0  0  0  0  0  0
   19.4267   16.8560   38.4547 C   0  0  2  0  0  0  0  0  0  0  0  0
   18.4969   15.6985   38.7880 C   0  0  0  0  0  0  0  0  0  0  0  0
   18.4940   14.5305   38.0225 C   0  0  0  0  0  0  0  0  0  0  0  0
   17.5893   13.5115   38.2672 C   0  0  0  0  0  0  0  0  0  0  0  0
   16.6622   13.6472   39.2831 C   0  0  0  0  0  0  0  0  0  0  0  0
   15.5124   12.3907   39.5735 Cl  0  0  0  0  0  0  0  0  0  0  0  0
   16.6446   14.7922   40.0576 C   0  0  0  0  0  0  0  0  0  0  0  0
   17.5559   15.8053   39.8131 C   0  0  0  0  0  0  0  0  0  0  0  0
   22.1451   14.3561   38.1419 C   0  0  0  0  0  0  0  0  0  0  0  0
   22.6995   13.2564   38.7733 C   0  0  0  0  0  0  0  0  0  0  0  0
   21.9339   14.0420   41.9746 H   0  0  0  0  0  0  0  0  0  0  0  0
   20.9566   15.9768   40.8715 H   0  0  0  0  0  0  0  0  0  0  0  0
   21.0220   16.3940   37.0465 H   0  0  0  0  0  0  0  0  0  0  0  0
   21.4650   19.7832   36.5542 H   0  0  0  0  0  0  0  0  0  0  0  0
   21.5518   20.7652   38.0267 H   0  0  0  0  0  0  0  0  0  0  0  0
   24.3264   22.8298   36.4341 H   0  0  0  0  0  0  0  0  0  0  0  0
   25.7311   21.6110   37.8254 H   0  0  0  0  0  0  0  0  0  0  0  0
   24.2825   21.6528   38.8557 H   0  0  0  0  0  0  0  0  0  0  0  0
   25.0837   19.2811   38.5235 H   0  0  0  0  0  0  0  0  0  0  0  0
   24.9339   19.4765   36.7740 H   0  0  0  0  0  0  0  0  0  0  0  0
   19.1669   20.2525   40.5427 H   0  0  0  0  0  0  0  0  0  0  0  0
   19.5483   20.6582   44.0599 H   0  0  0  0  0  0  0  0  0  0  0  0
   17.0300   20.2099   43.9145 H   0  0  0  0  0  0  0  0  0  0  0  0
   17.9045   19.7035   42.4703 H   0  0  0  0  0  0  0  0  0  0  0  0
   16.9929   21.2002   42.4393 H   0  0  0  0  0  0  0  0  0  0  0  0
   19.3051   22.9826   44.8623 H   0  0  0  0  0  0  0  0  0  0  0  0
   17.9293   22.0010   45.3911 H   0  0  0  0  0  0  0  0  0  0  0  0
   17.7694   23.1439   44.0383 H   0  0  0  0  0  0  0  0  0  0  0  0
   23.9470   21.6065   44.0829 H   0  0  0  0  0  0  0  0  0  0  0  0
   23.5970   23.3230   44.2763 H   0  0  0  0  0  0  0  0  0  0  0  0
   24.0534   22.7417   42.6771 H   0  0  0  0  0  0  0  0  0  0  0  0
   23.8350   20.4459   42.1663 H   0  0  0  0  0  0  0  0  0  0  0  0
   23.2137   18.7860   40.5488 H   0  0  0  0  0  0  0  0  0  0  0  0
   18.9766   17.3497   37.5886 H   0  0  0  0  0  0  0  0  0  0  0  0
   19.1893   14.4094   37.1973 H   0  0  0  0  0  0  0  0  0  0  0  0
   17.6025   12.6206   37.6468 H   0  0  0  0  0  0  0  0  0  0  0  0
   15.9123   14.9093   40.8493 H   0  0  0  0  0  0  0  0  0  0  0  0
   17.5131   16.6973   40.4313 H   0  0  0  0  0  0  0  0  0  0  0  0
   22.2227   14.4263   37.0606 H   0  0  0  0  0  0  0  0  0  0  0  0
   23.1938   12.4907   38.1833 H   0  0  0  0  0  0  0  0  0  0  0  0
  2  1  1  0  0  0  0
  2  3  1  0  0  0  0
  2 40  2  0  0  0  0
  3 41  1  0  0  0  0
  3  4  2  0  0  0  0
  4 42  1  0  0  0  0
  4  5  1  0  0  0  0
  5 39  2  0  0  0  0
  6  5  1  0  0  0  0
  6 43  1  0  0  0  0
  6 31  1  0  0  0  0
  6  7  1  0  0  0  0
  7 17  1  0  0  0  0
  7  8  1  0  0  0  0
  8  9  2  0  0  0  0
  8 10  1  0  0  0  0
 10 16  1  0  0  0  0
 10 11  1  0  0  0  0
 11 12  1  0  0  0  0
 11 44  1  0  0  0  0
 11 45  1  0  0  0  0
 12 14  1  0  0  0  0
 12 13  2  0  0  0  0
 14 15  1  0  0  0  0
 14 46  1  0  0  0  0
 15 16  1  0  0  0  0
 15 47  1  0  0  0  0
 15 48  1  0  0  0  0
 16 49  1  0  0  0  0
 16 50  1  0  0  0  0
 17 30  2  0  0  0  0
 17 18  1  0  0  0  0
 18 19  1  0  0  0  0
 18 29  2  0  0  0  0
 19 51  1  0  0  0  0
 19 20  2  0  0  0  0
 20 25  1  0  0  0  0
 20 21  1  0  0  0  0
 21 22  1  0  0  0  0
 22 52  1  0  0  0  0
 22 24  1  0  0  0  0
 22 23  1  0  0  0  0
 23 53  1  0  0  0  0
 23 54  1  0  0  0  0
 23 55  1  0  0  0  0
 24 56  1  0  0  0  0
 24 57  1  0  0  0  0
 24 58  1  0  0  0  0
 25 28  2  0  0  0  0
 25 26  1  0  0  0  0
 26 27  1  0  0  0  0
 27 59  1  0  0  0  0
 27 60  1  0  0  0  0
 27 61  1  0  0  0  0
 28 62  1  0  0  0  0
 28 29  1  0  0  0  0
 29 63  1  0  0  0  0
 31 30  1  0  0  0  0
 31 64  1  0  0  0  0
 31 32  1  0  0  0  0
 32 33  1  0  0  0  0
 32 38  2  0  0  0  0
 33 65  1  0  0  0  0
 33 34  2  0  0  0  0
 34 66  1  0  0  0  0
 34 35  1  0  0  0  0
 35 36  1  0  0  0  0
 35 37  2  0  0  0  0
 37 67  1  0  0  0  0
 37 38  1  0  0  0  0
 38 68  1  0  0  0  0
 39 69  1  0  0  0  0
 39 40  1  0  0  0  0
 40 70  1  0  0  0  0
M  ZZC   1 &Cl1
M  ZZC   2 c1
M  ZZC   3 c2
M  ZZC   4 c3
M  ZZC   5 c4
M  ZZC   6 c5
M  ZZC   7 n1
M  ZZC   8 c6
M  ZZC   9 o1
M  ZZC  10 n2
M  ZZC  11 c7
M  ZZC  12 c8
M  ZZC  13 o2
M  ZZC  14 n3
M  ZZC  15 c9
M  ZZC  16 c10
M  ZZC  17 c11
M  ZZC  18 c12
M  ZZC  19 c13
M  ZZC  20 c14
M  ZZC  21 o3
M  ZZC  22 c15
M  ZZC  23 c16
M  ZZC  24 c17
M  ZZC  25 c18
M  ZZC  26 o4
M  ZZC  27 c19
M  ZZC  28 c20
M  ZZC  29 c21
M  ZZC  30 n4
M  ZZC  31 c22
M  ZZC  32 c23
M  ZZC  33 c24
M  ZZC  34 c25
M  ZZC  35 c26
M  ZZC  36 &Cl2
M  ZZC  37 c27
M  ZZC  38 c28
M  ZZC  39 c29
M  ZZC  40 c30
M  ZZC  41 h21
M  ZZC  42 h31
M  ZZC  43 h51
M  ZZC  44 h71
M  ZZC  45 h72
M  ZZC  46 h01
M  ZZC  47 h91
M  ZZC  48 h92
M  ZZC  49 h101
M  ZZC  50 h102
M  ZZC  51 h131
M  ZZC  52 h151
M  ZZC  53 h161
M  ZZC  54 h162
M  ZZC  55 h163
M  ZZC  56 h171
M  ZZC  57 h172
M  ZZC  58 h173
M  ZZC  59 h191
M  ZZC  60 h192
M  ZZC  61 h193
M  ZZC  62 h201
M  ZZC  63 h211
M  ZZC  64 h221
M  ZZC  65 h241
M  ZZC  66 h251
M  ZZC  67 h271
M  ZZC  68 h281
M  ZZC  69 h291
M  ZZC  70 h301
M  ZZM   1 12
M  ZZI   1 92
M  ZZM   2 37
M  ZZI   2 124
M  ZZM   3 37
M  ZZI   3 125
M  ZZM   4 37
M  ZZI   4 125
M  ZZM   5 37
M  ZZI   5 124
M  ZZM   6 1
M  ZZI   6 113
M  ZZM   7 10
M  ZZI   7 192
M  ZZM   8 3
M  ZZI   8 121
M  ZZM   9 7
M  ZZI   9 81
M  ZZM  10 10
M  ZZI  10 192
M  ZZM  11 1
M  ZZI  11 112
M  ZZM  12 3
M  ZZI  12 121
M  ZZM  13 7
M  ZZI  13 81
M  ZZM  14 10
M  ZZI  14 211
M  ZZM  15 1
M  ZZI  15 112
M  ZZM  16 1
M  ZZI  16 112
M  ZZM  17 3
M  ZZI  17 121
M  ZZM  18 37
M  ZZI  18 124
M  ZZM  19 37
M  ZZI  19 125
M  ZZM  20 37
M  ZZI  20 124
M  ZZM  21 6
M  ZZI  21 59
M  ZZM  22 1
M  ZZI  22 113
M  ZZM  23 1
M  ZZI  23 111
M  ZZM  24 1
M  ZZI  24 111
M  ZZM  25 37
M  ZZI  25 124
M  ZZM  26 6
M  ZZI  26 59
M  ZZM  27 1
M  ZZI  27 111
M  ZZM  28 37
M  ZZI  28 125
M  ZZM  29 37
M  ZZI  29 125
M  ZZM  30 9
M  ZZI  30 220
M  ZZM  31 1
M  ZZI  31 113
M  ZZM  32 37
M  ZZI  32 124
M  ZZM  33 37
M  ZZI  33 125
M  ZZM  34 37
M  ZZI  34 125
M  ZZM  35 37
M  ZZI  35 124
M  ZZM  36 12
M  ZZI  36 92
M  ZZM  37 37
M  ZZI  37 125
M  ZZM  38 37
M  ZZI  38 125
M  ZZM  39 37
M  ZZI  39 125
M  ZZM  40 37
M  ZZI  40 125
M  ZZM  41 5
M  ZZI  41 1
M  ZZM  42 5
M  ZZI  42 1
M  ZZM  43 5
M  ZZI  43 1
M  ZZM  44 5
M  ZZI  44 1
M  ZZM  45 5
M  ZZI  45 1
M  ZZM  46 28
M  ZZI  46 11
M  ZZM  47 5
M  ZZI  47 1
M  ZZM  48 5
M  ZZI  48 1
M  ZZM  49 5
M  ZZI  49 1
M  ZZM  50 5
M  ZZI  50 1
M  ZZM  51 5
M  ZZI  51 1
M  ZZM  52 5
M  ZZI  52 1
M  ZZM  53 5
M  ZZI  53 1
M  ZZM  54 5
M  ZZI  54 1
M  ZZM  55 5
M  ZZI  55 1
M  ZZM  56 5
M  ZZI  56 1
M  ZZM  57 5
M  ZZI  57 1
M  ZZM  58 5
M  ZZI  58 1
M  ZZM  59 5
M  ZZI  59 1
M  ZZM  60 5
M  ZZI  60 1
M  ZZM  61 5
M  ZZI  61 1
M  ZZM  62 5
M  ZZI  62 1
M  ZZM  63 5
M  ZZI  63 1
M  ZZM  64 5
M  ZZI  64 1
M  ZZM  65 5
M  ZZI  65 1
M  ZZM  66 5
M  ZZI  66 1
M  ZZM  67 5
M  ZZI  67 1
M  ZZM  68 5
M  ZZI  68 1
M  ZZM  69 5
M  ZZI  69 1
M  ZZM  70 5
M  ZZI  70 1
M  END
> <IX>
1

> <NAME>
Mdm2_6NTU_2.pdb

> <Score>
-12.842216

> <Natom>
70

> <Nflex>
5

> <Hbond>
-0.687396

> <Hphob>
-6.189047

> <VwInt>
-26.374455

> <Dsolv>
12.32526

> <SolEl>
6.805776

> <Eintl>
4.470425

> <RecConf>
ND

> <projPath>
Mdm2_maps/

> <NAME_>
Mdm2_6NTU_2.pdb

$$$$
