Mdm2_2EUF_16.pdb
  MOLSOFT 04032206423D

 77 81  0  0  1  0  0  0  0  0999 V2000
   18.0385   14.3220   43.3336 Cl  0  0  0  0  0  0  0  0  0  0  0  0
   18.5225   15.8593   42.7120 C   0  0  0  0  0  0  0  0  0  0  0  0
   19.6148   16.5114   43.2534 C   0  0  0  0  0  0  0  0  0  0  0  0
   19.9998   17.7446   42.7556 C   0  0  0  0  0  0  0  0  0  0  0  0
   19.2928   18.3576   41.7165 C   0  0  0  0  0  0  0  0  0  0  0  0
   19.6516   19.7327   41.1474 C   0  0  2  0  0  0  0  0  0  0  0  0
   20.9538   19.7416   40.5270 N   0  0  0  0  0  0  0  0  0  0  0  0
   21.1262   19.1243   39.2831 C   0  0  0  0  0  0  0  0  0  0  0  0
   20.3503   18.2637   38.8953 O   0  0  0  0  0  0  0  0  0  0  0  0
   22.2033   19.5014   38.4800 N   0  0  0  0  0  0  0  0  0  0  0  0
   22.8422   20.8132   38.4919 C   0  0  0  0  0  0  0  0  0  0  0  0
   22.8669   21.5107   37.1364 C   0  0  0  0  0  0  0  0  0  0  0  0
   23.1635   22.6930   37.0645 O   0  0  0  0  0  0  0  0  0  0  0  0
   22.6525   20.7398   35.9966 N   0  0  0  0  0  0  0  0  0  0  0  0
   22.6100   21.4254   34.7015 C   0  0  0  0  0  0  0  0  0  0  0  0
   23.9752   21.7565   34.1087 C   0  0  0  0  0  0  0  0  0  0  0  0
   24.1145   22.5709   33.2078 O   0  0  0  0  0  0  0  0  0  0  0  0
   25.0212   21.0046   34.5735 N   0  0  0  0  0  0  0  0  0  0  0  0
   22.1794   19.3610   36.0575 C   0  0  0  0  0  0  0  0  0  0  0  0
   22.5766   18.6695   37.3485 C   0  0  0  0  0  0  0  0  0  0  0  0
   21.8102   20.2555   41.4959 C   0  0  0  0  0  0  0  0  0  0  0  0
   23.2879   20.0701   41.4818 C   0  0  0  0  0  0  0  0  0  0  0  0
   23.8794   18.8267   41.2432 C   0  0  0  0  0  0  0  0  0  0  0  0
   23.0060   17.7416   41.0603 O   0  0  0  0  0  0  0  0  0  0  0  0
   23.5610   16.4214   40.8971 C   0  0  0  0  0  0  0  0  0  0  0  0
   22.5018   15.5812   40.1965 C   0  0  0  0  0  0  0  0  0  0  0  0
   23.8813   15.8136   42.2620 C   0  0  0  0  0  0  0  0  0  0  0  0
   25.2738   18.7331   41.2341 C   0  0  0  0  0  0  0  0  0  0  0  0
   26.0523   19.8619   41.4989 C   0  0  0  0  0  0  0  0  0  0  0  0
   27.4527   19.8895   41.5082 O   0  0  0  0  0  0  0  0  0  0  0  0
   28.0916   18.6418   41.2085 C   0  0  0  0  0  0  0  0  0  0  0  0
   25.4459   21.0698   41.7951 C   0  0  0  0  0  0  0  0  0  0  0  0
   24.0690   21.1753   41.8048 C   0  0  0  0  0  0  0  0  0  0  0  0
   21.2412   20.8920   42.4757 N   0  0  0  0  0  0  0  0  0  0  0  0
   19.7910   20.8577   42.1881 C   0  0  2  0  0  0  0  0  0  0  0  0
   18.8987   20.7315   43.4112 C   0  0  0  0  0  0  0  0  0  0  0  0
   17.5226   20.5512   43.2671 C   0  0  0  0  0  0  0  0  0  0  0  0
   16.7194   20.2939   44.3639 C   0  0  0  0  0  0  0  0  0  0  0  0
   17.2762   20.2585   45.6287 C   0  0  0  0  0  0  0  0  0  0  0  0
   16.2955   19.8549   46.9927 Cl  0  0  0  0  0  0  0  0  0  0  0  0
   18.6217   20.5253   45.8038 C   0  0  0  0  0  0  0  0  0  0  0  0
   19.4251   20.7621   44.7022 C   0  0  0  0  0  0  0  0  0  0  0  0
   18.2054   17.6700   41.1868 C   0  0  0  0  0  0  0  0  0  0  0  0
   17.8179   16.4346   41.6720 C   0  0  0  0  0  0  0  0  0  0  0  0
   20.1767   16.0632   44.0668 H   0  0  0  0  0  0  0  0  0  0  0  0
   20.8628   18.2285   43.2014 H   0  0  0  0  0  0  0  0  0  0  0  0
   18.9088   20.0098   40.3898 H   0  0  0  0  0  0  0  0  0  0  0  0
   22.3224   21.4687   39.1891 H   0  0  0  0  0  0  0  0  0  0  0  0
   23.8831   20.6818   38.8009 H   0  0  0  0  0  0  0  0  0  0  0  0
   22.0615   20.8051   33.9851 H   0  0  0  0  0  0  0  0  0  0  0  0
   22.0733   22.3694   34.8356 H   0  0  0  0  0  0  0  0  0  0  0  0
   25.9519   21.1586   34.2042 H   0  0  0  0  0  0  0  0  0  0  0  0
   24.9088   20.3381   35.3288 H   0  0  0  0  0  0  0  0  0  0  0  0
   21.0902   19.3949   35.9684 H   0  0  0  0  0  0  0  0  0  0  0  0
   22.5773   18.8095   35.1994 H   0  0  0  0  0  0  0  0  0  0  0  0
   23.6619   18.5241   37.3905 H   0  0  0  0  0  0  0  0  0  0  0  0
   22.1071   17.6831   37.4083 H   0  0  0  0  0  0  0  0  0  0  0  0
   24.4422   16.4367   40.2490 H   0  0  0  0  0  0  0  0  0  0  0  0
   22.8394   14.5508   40.0495 H   0  0  0  0  0  0  0  0  0  0  0  0
   22.2610   16.0054   39.2180 H   0  0  0  0  0  0  0  0  0  0  0  0
   21.5670   15.5642   40.7652 H   0  0  0  0  0  0  0  0  0  0  0  0
   24.6381   16.3961   42.7938 H   0  0  0  0  0  0  0  0  0  0  0  0
   24.2503   14.7883   42.1635 H   0  0  0  0  0  0  0  0  0  0  0  0
   22.9945   15.8026   42.9035 H   0  0  0  0  0  0  0  0  0  0  0  0
   25.7551   17.7864   41.0372 H   0  0  0  0  0  0  0  0  0  0  0  0
   27.7802   17.9165   41.9649 H   0  0  0  0  0  0  0  0  0  0  0  0
   29.1818   18.7326   41.2655 H   0  0  0  0  0  0  0  0  0  0  0  0
   27.7728   18.2602   40.2326 H   0  0  0  0  0  0  0  0  0  0  0  0
   26.0532   21.9407   42.0231 H   0  0  0  0  0  0  0  0  0  0  0  0
   23.6124   22.1292   42.0546 H   0  0  0  0  0  0  0  0  0  0  0  0
   19.5542   21.8220   41.7242 H   0  0  0  0  0  0  0  0  0  0  0  0
   17.0687   20.5632   42.2813 H   0  0  0  0  0  0  0  0  0  0  0  0
   15.6615   20.0998   44.2212 H   0  0  0  0  0  0  0  0  0  0  0  0
   19.0607   20.5227   46.7966 H   0  0  0  0  0  0  0  0  0  0  0  0
   20.4852   20.9340   44.8611 H   0  0  0  0  0  0  0  0  0  0  0  0
   17.6463   18.1077   40.3714 H   0  0  0  0  0  0  0  0  0  0  0  0
   16.9650   15.9279   41.2316 H   0  0  0  0  0  0  0  0  0  0  0  0
  2  1  1  0  0  0  0
  2  3  1  0  0  0  0
  2 44  2  0  0  0  0
  3 45  1  0  0  0  0
  3  4  2  0  0  0  0
  4 46  1  0  0  0  0
  4  5  1  0  0  0  0
  5 43  2  0  0  0  0
  6  5  1  0  0  0  0
  6 47  1  0  0  0  0
  6 35  1  0  0  0  0
  6  7  1  0  0  0  0
  7 21  1  0  0  0  0
  7  8  1  0  0  0  0
  8  9  2  0  0  0  0
  8 10  1  0  0  0  0
 10 20  1  0  0  0  0
 10 11  1  0  0  0  0
 11 12  1  0  0  0  0
 11 48  1  0  0  0  0
 11 49  1  0  0  0  0
 12 14  1  0  0  0  0
 12 13  2  0  0  0  0
 14 19  1  0  0  0  0
 14 15  1  0  0  0  0
 15 50  1  0  0  0  0
 15 51  1  0  0  0  0
 15 16  1  0  0  0  0
 16 17  2  0  0  0  0
 16 18  1  0  0  0  0
 18 52  1  0  0  0  0
 18 53  1  0  0  0  0
 19 20  1  0  0  0  0
 19 54  1  0  0  0  0
 19 55  1  0  0  0  0
 20 56  1  0  0  0  0
 20 57  1  0  0  0  0
 21 34  2  0  0  0  0
 21 22  1  0  0  0  0
 22 23  2  0  0  0  0
 22 33  1  0  0  0  0
 23 24  1  0  0  0  0
 23 28  1  0  0  0  0
 24 25  1  0  0  0  0
 25 58  1  0  0  0  0
 25 27  1  0  0  0  0
 25 26  1  0  0  0  0
 26 59  1  0  0  0  0
 26 60  1  0  0  0  0
 26 61  1  0  0  0  0
 27 62  1  0  0  0  0
 27 63  1  0  0  0  0
 27 64  1  0  0  0  0
 28 65  1  0  0  0  0
 28 29  2  0  0  0  0
 29 32  1  0  0  0  0
 29 30  1  0  0  0  0
 30 31  1  0  0  0  0
 31 66  1  0  0  0  0
 31 67  1  0  0  0  0
 31 68  1  0  0  0  0
 32 69  1  0  0  0  0
 32 33  2  0  0  0  0
 33 70  1  0  0  0  0
 35 34  1  0  0  0  0
 35 71  1  0  0  0  0
 35 36  1  0  0  0  0
 36 37  1  0  0  0  0
 36 42  2  0  0  0  0
 37 72  1  0  0  0  0
 37 38  2  0  0  0  0
 38 73  1  0  0  0  0
 38 39  1  0  0  0  0
 39 40  1  0  0  0  0
 39 41  2  0  0  0  0
 41 74  1  0  0  0  0
 41 42  1  0  0  0  0
 42 75  1  0  0  0  0
 43 76  1  0  0  0  0
 43 44  1  0  0  0  0
 44 77  1  0  0  0  0
M  ZZC   1 &Cl1
M  ZZC   2 c1
M  ZZC   3 c2
M  ZZC   4 c3
M  ZZC   5 c4
M  ZZC   6 c5
M  ZZC   7 n1
M  ZZC   8 c6
M  ZZC   9 o1
M  ZZC  10 n2
M  ZZC  11 c7
M  ZZC  12 c8
M  ZZC  13 o2
M  ZZC  14 n3
M  ZZC  15 c9
M  ZZC  16 c10
M  ZZC  17 o3
M  ZZC  18 n4
M  ZZC  19 c11
M  ZZC  20 c12
M  ZZC  21 c13
M  ZZC  22 c14
M  ZZC  23 c15
M  ZZC  24 o4
M  ZZC  25 c16
M  ZZC  26 c17
M  ZZC  27 c18
M  ZZC  28 c19
M  ZZC  29 c20
M  ZZC  30 o5
M  ZZC  31 c21
M  ZZC  32 c22
M  ZZC  33 c23
M  ZZC  34 n5
M  ZZC  35 c24
M  ZZC  36 c25
M  ZZC  37 c26
M  ZZC  38 c27
M  ZZC  39 c28
M  ZZC  40 &Cl2
M  ZZC  41 c29
M  ZZC  42 c30
M  ZZC  43 c31
M  ZZC  44 c32
M  ZZC  45 h21
M  ZZC  46 h31
M  ZZC  47 h51
M  ZZC  48 h71
M  ZZC  49 h72
M  ZZC  50 h91
M  ZZC  51 h92
M  ZZC  52 h41
M  ZZC  53 h42
M  ZZC  54 h111
M  ZZC  55 h112
M  ZZC  56 h121
M  ZZC  57 h122
M  ZZC  58 h161
M  ZZC  59 h171
M  ZZC  60 h172
M  ZZC  61 h173
M  ZZC  62 h181
M  ZZC  63 h182
M  ZZC  64 h183
M  ZZC  65 h191
M  ZZC  66 h211
M  ZZC  67 h212
M  ZZC  68 h213
M  ZZC  69 h221
M  ZZC  70 h231
M  ZZC  71 h241
M  ZZC  72 h261
M  ZZC  73 h271
M  ZZC  74 h291
M  ZZC  75 h301
M  ZZC  76 h311
M  ZZC  77 h321
M  ZZM   1 12
M  ZZI   1 92
M  ZZM   2 37
M  ZZI   2 124
M  ZZM   3 37
M  ZZI   3 125
M  ZZM   4 37
M  ZZI   4 125
M  ZZM   5 37
M  ZZI   5 124
M  ZZM   6 1
M  ZZI   6 113
M  ZZM   7 10
M  ZZI   7 192
M  ZZM   8 3
M  ZZI   8 121
M  ZZM   9 7
M  ZZI   9 81
M  ZZM  10 10
M  ZZI  10 192
M  ZZM  11 1
M  ZZI  11 112
M  ZZM  12 3
M  ZZI  12 121
M  ZZM  13 7
M  ZZI  13 81
M  ZZM  14 10
M  ZZI  14 192
M  ZZM  15 1
M  ZZI  15 112
M  ZZM  16 3
M  ZZI  16 121
M  ZZM  17 7
M  ZZI  17 81
M  ZZM  18 10
M  ZZI  18 212
M  ZZM  19 1
M  ZZI  19 112
M  ZZM  20 1
M  ZZI  20 112
M  ZZM  21 3
M  ZZI  21 121
M  ZZM  22 37
M  ZZI  22 124
M  ZZM  23 37
M  ZZI  23 124
M  ZZM  24 6
M  ZZI  24 59
M  ZZM  25 1
M  ZZI  25 113
M  ZZM  26 1
M  ZZI  26 111
M  ZZM  27 1
M  ZZI  27 111
M  ZZM  28 37
M  ZZI  28 125
M  ZZM  29 37
M  ZZI  29 124
M  ZZM  30 6
M  ZZI  30 59
M  ZZM  31 1
M  ZZI  31 111
M  ZZM  32 37
M  ZZI  32 125
M  ZZM  33 37
M  ZZI  33 125
M  ZZM  34 9
M  ZZI  34 220
M  ZZM  35 1
M  ZZI  35 113
M  ZZM  36 37
M  ZZI  36 124
M  ZZM  37 37
M  ZZI  37 125
M  ZZM  38 37
M  ZZI  38 125
M  ZZM  39 37
M  ZZI  39 124
M  ZZM  40 12
M  ZZI  40 92
M  ZZM  41 37
M  ZZI  41 125
M  ZZM  42 37
M  ZZI  42 125
M  ZZM  43 37
M  ZZI  43 125
M  ZZM  44 37
M  ZZI  44 125
M  ZZM  45 5
M  ZZI  45 1
M  ZZM  46 5
M  ZZI  46 1
M  ZZM  47 5
M  ZZI  47 1
M  ZZM  48 5
M  ZZI  48 1
M  ZZM  49 5
M  ZZI  49 1
M  ZZM  50 5
M  ZZI  50 1
M  ZZM  51 5
M  ZZI  51 1
M  ZZM  52 28
M  ZZI  52 11
M  ZZM  53 28
M  ZZI  53 11
M  ZZM  54 5
M  ZZI  54 1
M  ZZM  55 5
M  ZZI  55 1
M  ZZM  56 5
M  ZZI  56 1
M  ZZM  57 5
M  ZZI  57 1
M  ZZM  58 5
M  ZZI  58 1
M  ZZM  59 5
M  ZZI  59 1
M  ZZM  60 5
M  ZZI  60 1
M  ZZM  61 5
M  ZZI  61 1
M  ZZM  62 5
M  ZZI  62 1
M  ZZM  63 5
M  ZZI  63 1
M  ZZM  64 5
M  ZZI  64 1
M  ZZM  65 5
M  ZZI  65 1
M  ZZM  66 5
M  ZZI  66 1
M  ZZM  67 5
M  ZZI  67 1
M  ZZM  68 5
M  ZZI  68 1
M  ZZM  69 5
M  ZZI  69 1
M  ZZM  70 5
M  ZZI  70 1
M  ZZM  71 5
M  ZZI  71 1
M  ZZM  72 5
M  ZZI  72 1
M  ZZM  73 5
M  ZZI  73 1
M  ZZM  74 5
M  ZZI  74 1
M  ZZM  75 5
M  ZZI  75 1
M  ZZM  76 5
M  ZZI  76 1
M  ZZM  77 5
M  ZZI  77 1
M  END
> <IX>
1

> <NAME>
Mdm2_2EUF_16.pdb

> <Score>
-17.786891

> <Natom>
77

> <Nflex>
7

> <Hbond>
-2.901029

> <Hphob>
-5.905895

> <VwInt>
-23.830724

> <Dsolv>
11.096471

> <SolEl>
3.866958

> <Eintl>
3.776401

> <RecConf>
ND

> <projPath>
Mdm2_maps/

> <NAME_>
Mdm2_2EUF_16.pdb

$$$$
