Mdm2_5GMP_3.pdb
  MOLSOFT 04032206383D

 71 74  0  0  1  0  0  0  0  0999 V2000
   21.7523   12.7454   38.2104 Cl  0  0  0  0  0  0  0  0  0  0  0  0
   20.5264   13.9139   38.5563 C   0  0  0  0  0  0  0  0  0  0  0  0
   20.8495   15.1001   39.1989 C   0  0  0  0  0  0  0  0  0  0  0  0
   22.1260   15.3184   39.5616 F   0  0  0  0  0  0  0  0  0  0  0  0
   19.8871   16.0715   39.4736 C   0  0  0  0  0  0  0  0  0  0  0  0
   20.2886   17.3596   40.1899 C   0  0  1  0  0  0  0  0  0  0  0  0
   19.8744   18.6499   39.4675 C   0  0  2  0  0  0  0  0  0  0  0  0
   20.9886   19.1189   38.5276 C   0  0  0  0  0  0  0  0  0  0  0  0
   22.0713   19.5558   38.8997 O   0  0  0  0  0  0  0  0  0  0  0  0
   20.7593   19.0158   37.0718 N   0  5  0  0  0  0  0  0  0  0  0  0
   21.8130   19.5478   36.1728 C   0  0  0  0  0  0  0  0  0  0  0  0
   22.4553   18.7798   35.1798 C   0  0  0  0  0  0  0  0  0  0  0  0
   22.3548   17.3946   34.9823 O   0  0  0  0  0  0  0  0  0  0  0  0
   22.1205   16.6452   36.1795 C   0  0  0  0  0  0  0  0  0  0  0  0
   23.2493   19.4096   34.2288 C   0  0  0  0  0  0  0  0  0  0  0  0
   23.4562   20.7873   34.2661 C   0  0  0  0  0  0  0  0  0  0  0  0
   24.2615   21.5003   33.2285 C   0  0  0  0  0  0  0  0  0  0  0  0
   24.0519   22.6784   32.9877 O   0  0  0  0  0  0  0  0  0  0  0  0
   25.2284   20.7908   32.5698 N   0  0  0  0  0  0  0  0  0  0  0  0
   22.8623   21.5375   35.2729 C   0  0  0  0  0  0  0  0  0  0  0  0
   22.0565   20.9125   36.2068 C   0  0  0  0  0  0  0  0  0  0  0  0
   19.6240   19.6585   40.5230 N   0  0  0  0  0  0  0  0  0  0  0  0
   20.0456   19.0789   41.8049 C   0  0  1  0  0  0  0  0  0  0  0  0
   19.3506   19.7287   43.0328 C   0  0  0  0  0  0  0  0  0  0  0  0
   19.7814   21.1594   43.4572 C   0  0  0  0  0  0  0  0  0  0  0  0
   19.0235   21.5254   44.7434 C   0  0  0  0  0  0  0  0  0  0  0  0
   21.2909   21.2321   43.7230 C   0  0  0  0  0  0  0  0  0  0  0  0
   19.4306   22.2107   42.4059 C   0  0  0  0  0  0  0  0  0  0  0  0
   19.8052   17.5558   41.6444 C   0  0  1  0  0  0  0  0  0  0  0  0
   18.3535   17.3064   41.7893 C   0  0  0  0  0  0  0  0  0  0  0  0
   17.2111   17.1429   41.9138 N   0  0  0  0  0  0  0  0  0  0  0  0
   20.6037   16.6597   42.6060 C   0  0  0  0  0  0  0  0  0  0  0  0
   20.2395   15.3230   42.8154 C   0  0  0  0  0  0  0  0  0  0  0  0
   19.1777   14.8051   42.1783 F   0  0  0  0  0  0  0  0  0  0  0  0
   20.9359   14.4804   43.6586 C   0  0  0  0  0  0  0  0  0  0  0  0
   22.0440   14.9565   44.3276 C   0  0  0  0  0  0  0  0  0  0  0  0
   22.9277   13.9172   45.3864 Cl  0  0  0  0  0  0  0  0  0  0  0  0
   22.4474   16.2649   44.1445 C   0  0  0  0  0  0  0  0  0  0  0  0
   21.7417   17.1010   43.2949 C   0  0  0  0  0  0  0  0  0  0  0  0
   18.5782   15.7916   39.0743 C   0  0  0  0  0  0  0  0  0  0  0  0
   18.2463   14.5938   38.4647 C   0  0  0  0  0  0  0  0  0  0  0  0
   19.2187   13.6521   38.1920 C   0  0  0  0  0  0  0  0  0  0  0  0
   21.3857   17.3591   40.2207 H   0  0  0  0  0  0  0  0  0  0  0  0
   18.9594   18.5292   38.8775 H   0  0  0  0  0  0  0  0  0  0  0  0
   22.3668   15.5853   36.0552 H   0  0  0  0  0  0  0  0  0  0  0  0
   21.0523   16.7074   36.4026 H   0  0  0  0  0  0  0  0  0  0  0  0
   22.6505   17.0889   37.0248 H   0  0  0  0  0  0  0  0  0  0  0  0
   23.6805   18.8006   33.4421 H   0  0  0  0  0  0  0  0  0  0  0  0
   25.7756   21.2727   31.8647 H   0  0  0  0  0  0  0  0  0  0  0  0
   25.4598   19.8246   32.7666 H   0  0  0  0  0  0  0  0  0  0  0  0
   23.0096   22.6119   35.3359 H   0  0  0  0  0  0  0  0  0  0  0  0
   21.5924   21.5029   36.9823 H   0  0  0  0  0  0  0  0  0  0  0  0
   18.6345   19.9100   40.5365 H   0  0  0  0  0  0  0  0  0  0  0  0
   21.1182   19.2733   41.8633 H   0  0  0  0  0  0  0  0  0  0  0  0
   18.2664   19.7390   42.8698 H   0  0  0  0  0  0  0  0  0  0  0  0
   19.5017   19.0691   43.8941 H   0  0  0  0  0  0  0  0  0  0  0  0
   19.2615   22.5391   45.0782 H   0  0  0  0  0  0  0  0  0  0  0  0
   19.2690   20.8440   45.5641 H   0  0  0  0  0  0  0  0  0  0  0  0
   17.9391   21.4838   44.5940 H   0  0  0  0  0  0  0  0  0  0  0  0
   21.5898   22.2373   44.0253 H   0  0  0  0  0  0  0  0  0  0  0  0
   21.8792   21.0044   42.8304 H   0  0  0  0  0  0  0  0  0  0  0  0
   21.5944   20.5353   44.5107 H   0  0  0  0  0  0  0  0  0  0  0  0
   20.0580   22.1064   41.5185 H   0  0  0  0  0  0  0  0  0  0  0  0
   19.5902   23.2253   42.7850 H   0  0  0  0  0  0  0  0  0  0  0  0
   18.3806   22.1352   42.1093 H   0  0  0  0  0  0  0  0  0  0  0  0
   20.6053   13.4544   43.7824 H   0  0  0  0  0  0  0  0  0  0  0  0
   23.3231   16.6449   44.6626 H   0  0  0  0  0  0  0  0  0  0  0  0
   22.1175   18.1117   43.1856 H   0  0  0  0  0  0  0  0  0  0  0  0
   17.7818   16.5063   39.2401 H   0  0  0  0  0  0  0  0  0  0  0  0
   17.2143   14.3956   38.1922 H   0  0  0  0  0  0  0  0  0  0  0  0
   18.9497   12.7243   37.6956 H   0  0  0  0  0  0  0  0  0  0  0  0
  2  1  1  0  0  0  0
  2  3  2  0  0  0  0
  2 42  1  0  0  0  0
  3  4  1  0  0  0  0
  3  5  1  0  0  0  0
  5 40  2  0  0  0  0
  6  5  1  0  0  0  0
  6 43  1  0  0  0  0
  6 29  1  0  0  0  0
  6  7  1  0  0  0  0
  7 22  1  0  0  0  0
  7 44  1  0  0  0  0
  7  8  1  0  0  0  0
  8  9  2  0  0  0  0
  8 10  1  0  0  0  0
 10 11  1  0  0  0  0
 11 21  1  0  0  0  0
 11 12  2  0  0  0  0
 12 15  1  0  0  0  0
 12 13  1  0  0  0  0
 13 14  1  0  0  0  0
 14 45  1  0  0  0  0
 14 46  1  0  0  0  0
 14 47  1  0  0  0  0
 15 16  2  0  0  0  0
 15 48  1  0  0  0  0
 16 20  1  0  0  0  0
 16 17  1  0  0  0  0
 17 18  2  0  0  0  0
 17 19  1  0  0  0  0
 19 49  1  0  0  0  0
 19 50  1  0  0  0  0
 20 21  2  0  0  0  0
 20 51  1  0  0  0  0
 21 52  1  0  0  0  0
 23 22  1  0  0  0  0
 22 53  1  0  0  0  0
 23 29  1  0  0  0  0
 23 54  1  0  0  0  0
 23 24  1  0  0  0  0
 24 55  1  0  0  0  0
 24 56  1  0  0  0  0
 24 25  1  0  0  0  0
 25 26  1  0  0  0  0
 25 27  1  0  0  0  0
 25 28  1  0  0  0  0
 26 57  1  0  0  0  0
 26 58  1  0  0  0  0
 26 59  1  0  0  0  0
 27 60  1  0  0  0  0
 27 61  1  0  0  0  0
 27 62  1  0  0  0  0
 28 63  1  0  0  0  0
 28 64  1  0  0  0  0
 28 65  1  0  0  0  0
 29 30  1  0  0  0  0
 29 32  1  0  0  0  0
 30 31  3  0  0  0  0
 32 33  1  0  0  0  0
 32 39  2  0  0  0  0
 33 34  1  0  0  0  0
 33 35  2  0  0  0  0
 35 66  1  0  0  0  0
 35 36  1  0  0  0  0
 36 37  1  0  0  0  0
 36 38  2  0  0  0  0
 38 67  1  0  0  0  0
 38 39  1  0  0  0  0
 39 68  1  0  0  0  0
 40 69  1  0  0  0  0
 40 41  1  0  0  0  0
 41 70  1  0  0  0  0
 41 42  2  0  0  0  0
 42 71  1  0  0  0  0
M  ZZC   1 &Cl1
M  ZZC   2 c1
M  ZZC   3 c2
M  ZZC   4 f1
M  ZZC   5 c3
M  ZZC   6 c4
M  ZZC   7 c5
M  ZZC   8 c6
M  ZZC   9 o1
M  ZZC  10 n1
M  ZZC  11 c7
M  ZZC  12 c8
M  ZZC  13 o2
M  ZZC  14 c9
M  ZZC  15 c10
M  ZZC  16 c11
M  ZZC  17 c12
M  ZZC  18 o3
M  ZZC  19 n2
M  ZZC  20 c13
M  ZZC  21 c14
M  ZZC  22 n3
M  ZZC  23 c15
M  ZZC  24 c16
M  ZZC  25 c17
M  ZZC  26 c18
M  ZZC  27 c19
M  ZZC  28 c20
M  ZZC  29 c21
M  ZZC  30 c22
M  ZZC  31 n4
M  ZZC  32 c23
M  ZZC  33 c24
M  ZZC  34 f2
M  ZZC  35 c25
M  ZZC  36 c26
M  ZZC  37 &Cl2
M  ZZC  38 c27
M  ZZC  39 c28
M  ZZC  40 c29
M  ZZC  41 c30
M  ZZC  42 c31
M  ZZC  43 h41
M  ZZC  44 h51
M  ZZC  45 h91
M  ZZC  46 h92
M  ZZC  47 h93
M  ZZC  48 h101
M  ZZC  49 h21
M  ZZC  50 h22
M  ZZC  51 h131
M  ZZC  52 h141
M  ZZC  53 h31
M  ZZC  54 h151
M  ZZC  55 h161
M  ZZC  56 h162
M  ZZC  57 h181
M  ZZC  58 h182
M  ZZC  59 h183
M  ZZC  60 h191
M  ZZC  61 h192
M  ZZC  62 h193
M  ZZC  63 h201
M  ZZC  64 h202
M  ZZC  65 h203
M  ZZC  66 h251
M  ZZC  67 h271
M  ZZC  68 h281
M  ZZC  69 h291
M  ZZC  70 h301
M  ZZC  71 h311
M  ZZM   1 12
M  ZZI   1 92
M  ZZM   2 37
M  ZZI   2 124
M  ZZM   3 37
M  ZZI   3 124
M  ZZM   4 11
M  ZZI   4 90
M  ZZM   5 37
M  ZZI   5 124
M  ZZM   6 1
M  ZZI   6 113
M  ZZM   7 1
M  ZZI   7 113
M  ZZM   8 3
M  ZZI   8 122
M  ZZM   9 7
M  ZZI   9 80
M  ZZM  10 76
M  ZZI  10 239
M  ZZM  11 37
M  ZZI  11 124
M  ZZM  12 37
M  ZZI  12 124
M  ZZM  13 6
M  ZZI  13 59
M  ZZM  14 1
M  ZZI  14 111
M  ZZM  15 37
M  ZZI  15 125
M  ZZM  16 37
M  ZZI  16 124
M  ZZM  17 3
M  ZZI  17 121
M  ZZM  18 7
M  ZZI  18 81
M  ZZM  19 10
M  ZZI  19 212
M  ZZM  20 37
M  ZZI  20 125
M  ZZM  21 37
M  ZZI  21 125
M  ZZM  22 8
M  ZZI  22 214
M  ZZM  23 1
M  ZZI  23 113
M  ZZM  24 1
M  ZZI  24 112
M  ZZM  25 1
M  ZZI  25 110
M  ZZM  26 1
M  ZZI  26 111
M  ZZM  27 1
M  ZZI  27 111
M  ZZM  28 1
M  ZZI  28 111
M  ZZM  29 1
M  ZZI  29 110
M  ZZM  30 4
M  ZZI  30 130
M  ZZM  31 42
M  ZZI  31 225
M  ZZM  32 37
M  ZZI  32 124
M  ZZM  33 37
M  ZZI  33 124
M  ZZM  34 11
M  ZZI  34 90
M  ZZM  35 37
M  ZZI  35 125
M  ZZM  36 37
M  ZZI  36 124
M  ZZM  37 12
M  ZZI  37 92
M  ZZM  38 37
M  ZZI  38 125
M  ZZM  39 37
M  ZZI  39 125
M  ZZM  40 37
M  ZZI  40 125
M  ZZM  41 37
M  ZZI  41 125
M  ZZM  42 37
M  ZZI  42 125
M  ZZM  43 5
M  ZZI  43 1
M  ZZM  44 5
M  ZZI  44 1
M  ZZM  45 5
M  ZZI  45 1
M  ZZM  46 5
M  ZZI  46 1
M  ZZM  47 5
M  ZZI  47 1
M  ZZM  48 5
M  ZZI  48 1
M  ZZM  49 28
M  ZZI  49 11
M  ZZM  50 28
M  ZZI  50 11
M  ZZM  51 5
M  ZZI  51 1
M  ZZM  52 5
M  ZZI  52 1
M  ZZM  53 23
M  ZZI  53 10
M  ZZM  54 5
M  ZZI  54 1
M  ZZM  55 5
M  ZZI  55 1
M  ZZM  56 5
M  ZZI  56 1
M  ZZM  57 5
M  ZZI  57 1
M  ZZM  58 5
M  ZZI  58 1
M  ZZM  59 5
M  ZZI  59 1
M  ZZM  60 5
M  ZZI  60 1
M  ZZM  61 5
M  ZZI  61 1
M  ZZM  62 5
M  ZZI  62 1
M  ZZM  63 5
M  ZZI  63 1
M  ZZM  64 5
M  ZZI  64 1
M  ZZM  65 5
M  ZZI  65 1
M  ZZM  66 5
M  ZZI  66 1
M  ZZM  67 5
M  ZZI  67 1
M  ZZM  68 5
M  ZZI  68 1
M  ZZM  69 5
M  ZZI  69 1
M  ZZM  70 5
M  ZZI  70 1
M  ZZM  71 5
M  ZZI  71 1
M  CHG  1  10  -1
M  END
> <IX>
1

> <NAME>
Mdm2_5GMP_3.pdb

> <Score>
-10.102229

> <Natom>
71

> <Nflex>
5

> <Hbond>
-3.647183

> <Hphob>
-4.938442

> <VwInt>
-22.065746

> <Dsolv>
13.196328

> <SolEl>
14.48661

> <Eintl>
3.402063

> <RecConf>
ND

> <projPath>
Mdm2_maps/

> <NAME_>
Mdm2_5GMP_3.pdb

$$$$
