Mdm2_4R6E_3.pdb
  MOLSOFT 04032206383D

 70 74  0  0  1  0  0  0  0  0999 V2000
   -2.0905   37.5007   40.1404 Cl  0  0  0  0  0  0  0  0  0  0  0  0
   -0.5039   37.4323   39.4616 C   0  0  0  0  0  0  0  0  0  0  0  0
   -0.0293   38.4883   38.7041 C   0  0  0  0  0  0  0  0  0  0  0  0
    1.2449   38.4319   38.1645 C   0  0  0  0  0  0  0  0  0  0  0  0
    2.0726   37.3290   38.3897 C   0  0  0  0  0  0  0  0  0  0  0  0
    3.4873   37.2314   37.8276 C   0  0  1  0  0  0  0  0  0  0  0  0
    3.5263   37.2794   36.3905 N   0  0  0  0  0  0  0  0  0  0  0  0
    2.8559   36.3636   35.5857 C   0  0  0  0  0  0  0  0  0  0  0  0
    1.7959   35.8607   35.9242 O   0  0  0  0  0  0  0  0  0  0  0  0
    3.4020   36.1021   34.3344 N   0  0  0  0  0  0  0  0  0  0  0  0
    4.8416   35.9549   34.0761 C   0  0  0  0  0  0  0  0  0  0  0  0
    5.2175   34.6712   33.3336 C   0  0  0  0  0  0  0  0  0  0  0  0
    6.3796   34.3178   33.2086 O   0  0  0  0  0  0  0  0  0  0  0  0
    4.2046   33.9793   32.7042 N   0  0  0  0  0  0  0  0  0  0  0  0
    2.7992   34.2235   32.9391 C   0  0  0  0  0  0  0  0  0  0  0  0
    2.5330   35.6765   33.2545 C   0  0  0  0  0  0  0  0  0  0  0  0
    4.0847   38.4959   36.0498 C   0  0  0  0  0  0  0  0  0  0  0  0
    3.9659   39.0433   34.6794 C   0  0  0  0  0  0  0  0  0  0  0  0
    5.1219   39.3169   33.9702 C   0  0  0  0  0  0  0  0  0  0  0  0
    5.0132   39.7046   32.6493 C   0  0  0  0  0  0  0  0  0  0  0  0
    6.1830   39.7706   31.8952 O   0  0  0  0  0  0  0  0  0  0  0  0
    6.6043   41.1393   31.7282 C   0  0  0  0  0  0  0  0  0  0  0  0
    7.0081   41.3224   30.2717 C   0  0  0  0  0  0  0  0  0  0  0  0
    7.7870   41.4099   32.6507 C   0  0  0  0  0  0  0  0  0  0  0  0
    3.7614   39.8855   32.0619 C   0  0  0  0  0  0  0  0  0  0  0  0
    3.7246   40.1664   30.6953 O   0  0  0  0  0  0  0  0  0  0  0  0
    2.7534   41.1708   30.3704 C   0  0  0  0  0  0  0  0  0  0  0  0
    2.6049   39.6857   32.8131 C   0  0  0  0  0  0  0  0  0  0  0  0
    2.7068   39.2562   34.1256 C   0  0  0  0  0  0  0  0  0  0  0  0
    4.6675   39.1543   36.9980 N   0  0  0  0  0  0  0  0  0  0  0  0
    4.4759   38.3534   38.2267 C   0  0  1  0  0  0  0  0  0  0  0  0
    4.0758   39.2035   39.4197 C   0  0  0  0  0  0  0  0  0  0  0  0
    3.9575   38.6365   40.6866 C   0  0  0  0  0  0  0  0  0  0  0  0
    3.5118   39.3927   41.7587 C   0  0  0  0  0  0  0  0  0  0  0  0
    3.2171   40.7314   41.5888 C   0  0  0  0  0  0  0  0  0  0  0  0
    2.6480   41.6650   42.9253 Cl  0  0  0  0  0  0  0  0  0  0  0  0
    3.3746   41.3252   40.3526 C   0  0  0  0  0  0  0  0  0  0  0  0
    3.7962   40.5644   39.2780 C   0  0  0  0  0  0  0  0  0  0  0  0
    1.5604   36.2706   39.1394 C   0  0  0  0  0  0  0  0  0  0  0  0
    0.2857   36.3152   39.6715 C   0  0  0  0  0  0  0  0  0  0  0  0
   -0.6494   39.3614   38.5265 H   0  0  0  0  0  0  0  0  0  0  0  0
    1.5930   39.2685   37.5669 H   0  0  0  0  0  0  0  0  0  0  0  0
    3.9005   36.2583   38.1149 H   0  0  0  0  0  0  0  0  0  0  0  0
    5.1503   36.7738   33.4269 H   0  0  0  0  0  0  0  0  0  0  0  0
    5.4039   36.0032   35.0137 H   0  0  0  0  0  0  0  0  0  0  0  0
    4.4846   33.1644   32.1673 H   0  0  0  0  0  0  0  0  0  0  0  0
    2.2459   33.9232   32.0454 H   0  0  0  0  0  0  0  0  0  0  0  0
    2.4969   33.5860   33.7761 H   0  0  0  0  0  0  0  0  0  0  0  0
    1.4805   35.8279   33.5136 H   0  0  0  0  0  0  0  0  0  0  0  0
    2.7560   36.3059   32.3869 H   0  0  0  0  0  0  0  0  0  0  0  0
    6.0944   39.1393   34.4113 H   0  0  0  0  0  0  0  0  0  0  0  0
    5.7924   41.8371   31.9625 H   0  0  0  0  0  0  0  0  0  0  0  0
    7.3505   42.3428   30.0758 H   0  0  0  0  0  0  0  0  0  0  0  0
    6.1658   41.1053   29.6086 H   0  0  0  0  0  0  0  0  0  0  0  0
    7.8067   40.6269   29.9948 H   0  0  0  0  0  0  0  0  0  0  0  0
    7.5172   41.2726   33.7017 H   0  0  0  0  0  0  0  0  0  0  0  0
    8.1607   42.4291   32.5179 H   0  0  0  0  0  0  0  0  0  0  0  0
    8.6208   40.7406   32.4205 H   0  0  0  0  0  0  0  0  0  0  0  0
    1.7549   40.7299   30.2878 H   0  0  0  0  0  0  0  0  0  0  0  0
    3.0160   41.5826   29.3924 H   0  0  0  0  0  0  0  0  0  0  0  0
    2.7680   41.9952   31.0916 H   0  0  0  0  0  0  0  0  0  0  0  0
    1.6194   39.7951   32.3732 H   0  0  0  0  0  0  0  0  0  0  0  0
    1.8030   39.0630   34.6964 H   0  0  0  0  0  0  0  0  0  0  0  0
    5.4514   37.9093   38.4590 H   0  0  0  0  0  0  0  0  0  0  0  0
    4.1843   37.5852   40.8359 H   0  0  0  0  0  0  0  0  0  0  0  0
    3.3810   38.9332   42.7294 H   0  0  0  0  0  0  0  0  0  0  0  0
    3.1573   42.3794   40.2122 H   0  0  0  0  0  0  0  0  0  0  0  0
    3.8944   41.0521   38.3129 H   0  0  0  0  0  0  0  0  0  0  0  0
    2.1547   35.3807   39.3079 H   0  0  0  0  0  0  0  0  0  0  0  0
   -0.0856   35.4739   40.2489 H   0  0  0  0  0  0  0  0  0  0  0  0
  2  1  1  0  0  0  0
  2  3  1  0  0  0  0
  2 40  2  0  0  0  0
  3 41  1  0  0  0  0
  3  4  2  0  0  0  0
  4 42  1  0  0  0  0
  4  5  1  0  0  0  0
  5 39  2  0  0  0  0
  6  5  1  0  0  0  0
  6 43  1  0  0  0  0
  6 31  1  0  0  0  0
  6  7  1  0  0  0  0
  7 17  1  0  0  0  0
  7  8  1  0  0  0  0
  8  9  2  0  0  0  0
  8 10  1  0  0  0  0
 10 16  1  0  0  0  0
 10 11  1  0  0  0  0
 11 12  1  0  0  0  0
 11 44  1  0  0  0  0
 11 45  1  0  0  0  0
 12 14  1  0  0  0  0
 12 13  2  0  0  0  0
 14 15  1  0  0  0  0
 14 46  1  0  0  0  0
 15 16  1  0  0  0  0
 15 47  1  0  0  0  0
 15 48  1  0  0  0  0
 16 49  1  0  0  0  0
 16 50  1  0  0  0  0
 17 30  2  0  0  0  0
 17 18  1  0  0  0  0
 18 19  1  0  0  0  0
 18 29  2  0  0  0  0
 19 51  1  0  0  0  0
 19 20  2  0  0  0  0
 20 25  1  0  0  0  0
 20 21  1  0  0  0  0
 21 22  1  0  0  0  0
 22 52  1  0  0  0  0
 22 24  1  0  0  0  0
 22 23  1  0  0  0  0
 23 53  1  0  0  0  0
 23 54  1  0  0  0  0
 23 55  1  0  0  0  0
 24 56  1  0  0  0  0
 24 57  1  0  0  0  0
 24 58  1  0  0  0  0
 25 28  2  0  0  0  0
 25 26  1  0  0  0  0
 26 27  1  0  0  0  0
 27 59  1  0  0  0  0
 27 60  1  0  0  0  0
 27 61  1  0  0  0  0
 28 62  1  0  0  0  0
 28 29  1  0  0  0  0
 29 63  1  0  0  0  0
 31 30  1  0  0  0  0
 31 64  1  0  0  0  0
 31 32  1  0  0  0  0
 32 33  1  0  0  0  0
 32 38  2  0  0  0  0
 33 65  1  0  0  0  0
 33 34  2  0  0  0  0
 34 66  1  0  0  0  0
 34 35  1  0  0  0  0
 35 36  1  0  0  0  0
 35 37  2  0  0  0  0
 37 67  1  0  0  0  0
 37 38  1  0  0  0  0
 38 68  1  0  0  0  0
 39 69  1  0  0  0  0
 39 40  1  0  0  0  0
 40 70  1  0  0  0  0
M  ZZC   1 &Cl1
M  ZZC   2 c1
M  ZZC   3 c2
M  ZZC   4 c3
M  ZZC   5 c4
M  ZZC   6 c5
M  ZZC   7 n1
M  ZZC   8 c6
M  ZZC   9 o1
M  ZZC  10 n2
M  ZZC  11 c7
M  ZZC  12 c8
M  ZZC  13 o2
M  ZZC  14 n3
M  ZZC  15 c9
M  ZZC  16 c10
M  ZZC  17 c11
M  ZZC  18 c12
M  ZZC  19 c13
M  ZZC  20 c14
M  ZZC  21 o3
M  ZZC  22 c15
M  ZZC  23 c16
M  ZZC  24 c17
M  ZZC  25 c18
M  ZZC  26 o4
M  ZZC  27 c19
M  ZZC  28 c20
M  ZZC  29 c21
M  ZZC  30 n4
M  ZZC  31 c22
M  ZZC  32 c23
M  ZZC  33 c24
M  ZZC  34 c25
M  ZZC  35 c26
M  ZZC  36 &Cl2
M  ZZC  37 c27
M  ZZC  38 c28
M  ZZC  39 c29
M  ZZC  40 c30
M  ZZC  41 h21
M  ZZC  42 h31
M  ZZC  43 h51
M  ZZC  44 h71
M  ZZC  45 h72
M  ZZC  46 h01
M  ZZC  47 h91
M  ZZC  48 h92
M  ZZC  49 h101
M  ZZC  50 h102
M  ZZC  51 h131
M  ZZC  52 h151
M  ZZC  53 h161
M  ZZC  54 h162
M  ZZC  55 h163
M  ZZC  56 h171
M  ZZC  57 h172
M  ZZC  58 h173
M  ZZC  59 h191
M  ZZC  60 h192
M  ZZC  61 h193
M  ZZC  62 h201
M  ZZC  63 h211
M  ZZC  64 h221
M  ZZC  65 h241
M  ZZC  66 h251
M  ZZC  67 h271
M  ZZC  68 h281
M  ZZC  69 h291
M  ZZC  70 h301
M  ZZM   1 12
M  ZZI   1 92
M  ZZM   2 37
M  ZZI   2 124
M  ZZM   3 37
M  ZZI   3 125
M  ZZM   4 37
M  ZZI   4 125
M  ZZM   5 37
M  ZZI   5 124
M  ZZM   6 1
M  ZZI   6 113
M  ZZM   7 10
M  ZZI   7 192
M  ZZM   8 3
M  ZZI   8 121
M  ZZM   9 7
M  ZZI   9 81
M  ZZM  10 10
M  ZZI  10 192
M  ZZM  11 1
M  ZZI  11 112
M  ZZM  12 3
M  ZZI  12 121
M  ZZM  13 7
M  ZZI  13 81
M  ZZM  14 10
M  ZZI  14 211
M  ZZM  15 1
M  ZZI  15 112
M  ZZM  16 1
M  ZZI  16 112
M  ZZM  17 3
M  ZZI  17 121
M  ZZM  18 37
M  ZZI  18 124
M  ZZM  19 37
M  ZZI  19 125
M  ZZM  20 37
M  ZZI  20 124
M  ZZM  21 6
M  ZZI  21 59
M  ZZM  22 1
M  ZZI  22 113
M  ZZM  23 1
M  ZZI  23 111
M  ZZM  24 1
M  ZZI  24 111
M  ZZM  25 37
M  ZZI  25 124
M  ZZM  26 6
M  ZZI  26 59
M  ZZM  27 1
M  ZZI  27 111
M  ZZM  28 37
M  ZZI  28 125
M  ZZM  29 37
M  ZZI  29 125
M  ZZM  30 9
M  ZZI  30 220
M  ZZM  31 1
M  ZZI  31 113
M  ZZM  32 37
M  ZZI  32 124
M  ZZM  33 37
M  ZZI  33 125
M  ZZM  34 37
M  ZZI  34 125
M  ZZM  35 37
M  ZZI  35 124
M  ZZM  36 12
M  ZZI  36 92
M  ZZM  37 37
M  ZZI  37 125
M  ZZM  38 37
M  ZZI  38 125
M  ZZM  39 37
M  ZZI  39 125
M  ZZM  40 37
M  ZZI  40 125
M  ZZM  41 5
M  ZZI  41 1
M  ZZM  42 5
M  ZZI  42 1
M  ZZM  43 5
M  ZZI  43 1
M  ZZM  44 5
M  ZZI  44 1
M  ZZM  45 5
M  ZZI  45 1
M  ZZM  46 28
M  ZZI  46 11
M  ZZM  47 5
M  ZZI  47 1
M  ZZM  48 5
M  ZZI  48 1
M  ZZM  49 5
M  ZZI  49 1
M  ZZM  50 5
M  ZZI  50 1
M  ZZM  51 5
M  ZZI  51 1
M  ZZM  52 5
M  ZZI  52 1
M  ZZM  53 5
M  ZZI  53 1
M  ZZM  54 5
M  ZZI  54 1
M  ZZM  55 5
M  ZZI  55 1
M  ZZM  56 5
M  ZZI  56 1
M  ZZM  57 5
M  ZZI  57 1
M  ZZM  58 5
M  ZZI  58 1
M  ZZM  59 5
M  ZZI  59 1
M  ZZM  60 5
M  ZZI  60 1
M  ZZM  61 5
M  ZZI  61 1
M  ZZM  62 5
M  ZZI  62 1
M  ZZM  63 5
M  ZZI  63 1
M  ZZM  64 5
M  ZZI  64 1
M  ZZM  65 5
M  ZZI  65 1
M  ZZM  66 5
M  ZZI  66 1
M  ZZM  67 5
M  ZZI  67 1
M  ZZM  68 5
M  ZZI  68 1
M  ZZM  69 5
M  ZZI  69 1
M  ZZM  70 5
M  ZZI  70 1
M  END
> <IX>
1

> <NAME>
Mdm2_4R6E_3.pdb

> <Score>
-15.72203

> <Natom>
70

> <Nflex>
5

> <Hbond>
-3.728142

> <Hphob>
-5.444696

> <VwInt>
-29.251371

> <Dsolv>
14.60096

> <SolEl>
11.114006

> <Eintl>
8.872538

> <RecConf>
ND

> <projPath>
Mdm2_maps/

> <NAME_>
Mdm2_4R6E_3.pdb

$$$$
