Ubr1_3K6P_1.pdb
  MOLSOFT 04032206323D

 29 28  0  0  1  0  0  0  0  0999 V2000
   19.9331    4.7332   26.4942 N   0  0  0  0  0  0  0  0  0  0  0  0
   20.8503    5.0739   27.4598 C   0  0  0  0  0  0  0  0  0  0  0  0
   21.8165    5.7813   27.2248 O   0  0  0  0  0  0  0  0  0  0  0  0
   20.5997    4.4914   28.8482 C   0  0  1  0  0  0  0  0  0  0  0  0
   19.1498    4.5710   29.2250 N   0  3  0  0  0  0  0  0  0  0  0  0
   21.0391    3.0270   28.9908 C   0  0  0  0  0  0  0  0  0  0  0  0
   22.5470    2.8905   29.1903 C   0  0  0  0  0  0  0  0  0  0  0  0
   22.9763    1.4385   29.3855 C   0  0  0  0  0  0  0  0  0  0  0  0
   22.6537    0.9515   30.7334 N   0  0  0  0  0  0  0  0  0  0  0  0
   22.9029   -0.3310   31.1390 C   0  0  0  0  0  0  0  0  0  0  0  0
   22.5597   -0.7018   32.3924 N   0  3  0  0  0  0  0  0  0  0  0  0
   23.4874   -1.2426   30.3246 N   0  0  0  0  0  0  0  0  0  0  0  0
   20.0502    5.0769   25.5457 H   0  0  0  0  0  0  0  0  0  0  0  0
   19.1769    4.0718   26.6314 H   0  0  0  0  0  0  0  0  0  0  0  0
   21.1173    5.1342   29.5596 H   0  0  0  0  0  0  0  0  0  0  0  0
   18.5691    3.9135   28.6892 H   0  0  0  0  0  0  0  0  0  0  0  0
   18.7758    5.5166   29.0763 H   0  0  0  0  0  0  0  0  0  0  0  0
   19.0066    4.3530   30.2178 H   0  0  0  0  0  0  0  0  0  0  0  0
   20.5312    2.5652   29.8402 H   0  0  0  0  0  0  0  0  0  0  0  0
   20.7340    2.4534   28.1125 H   0  0  0  0  0  0  0  0  0  0  0  0
   23.0611    3.3054   28.3214 H   0  0  0  0  0  0  0  0  0  0  0  0
   22.8622    3.4830   30.0559 H   0  0  0  0  0  0  0  0  0  0  0  0
   22.4829    0.7966   28.6481 H   0  0  0  0  0  0  0  0  0  0  0  0
   24.0612    1.3695   29.2574 H   0  0  0  0  0  0  0  0  0  0  0  0
   22.2563    1.5634   31.4366 H   0  0  0  0  0  0  0  0  0  0  0  0
   22.1451   -0.0390   33.0387 H   0  0  0  0  0  0  0  0  0  0  0  0
   22.7018   -1.6540   32.7062 H   0  0  0  0  0  0  0  0  0  0  0  0
   23.6220   -2.1965   30.6355 H   0  0  0  0  0  0  0  0  0  0  0  0
   23.7549   -1.0124   29.3765 H   0  0  0  0  0  0  0  0  0  0  0  0
  1  2  1  0  0  0  0
  1 13  1  0  0  0  0
  1 14  1  0  0  0  0
  4  2  1  0  0  0  0
  2  3  2  0  0  0  0
  4  5  1  0  0  0  0
  4 15  1  0  0  0  0
  4  6  1  0  0  0  0
  5 16  1  0  0  0  0
  5 17  1  0  0  0  0
  5 18  1  0  0  0  0
  6 19  1  0  0  0  0
  6 20  1  0  0  0  0
  6  7  1  0  0  0  0
  7 21  1  0  0  0  0
  7 22  1  0  0  0  0
  7  8  1  0  0  0  0
  8 23  1  0  0  0  0
  8 24  1  0  0  0  0
  8  9  1  0  0  0  0
  9 25  1  0  0  0  0
  9 10  1  0  0  0  0
 10 11  2  0  0  0  0
 10 12  1  0  0  0  0
 11 26  1  0  0  0  0
 11 27  1  0  0  0  0
 12 28  1  0  0  0  0
 12 29  1  0  0  0  0
M  ZZC   1 n1
M  ZZC   2 c1
M  ZZC   3 o1
M  ZZC   4 c2
M  ZZC   5 n2
M  ZZC   6 c3
M  ZZC   7 c4
M  ZZC   8 c5
M  ZZC   9 n3
M  ZZC  10 c6
M  ZZC  11 n4
M  ZZC  12 n5
M  ZZC  13 h11
M  ZZC  14 h12
M  ZZC  15 h21
M  ZZC  16 h01
M  ZZC  17 h22
M  ZZC  18 h23
M  ZZC  19 h31
M  ZZC  20 h32
M  ZZC  21 h41
M  ZZC  22 h42
M  ZZC  23 h51
M  ZZC  24 h52
M  ZZC  25 h02
M  ZZC  26 h03
M  ZZC  27 h04
M  ZZC  28 h05
M  ZZC  29 h06
M  ZZM   1 10
M  ZZI   1 212
M  ZZM   2 3
M  ZZI   2 121
M  ZZM   3 7
M  ZZI   3 81
M  ZZM   4 1
M  ZZI   4 113
M  ZZM   5 34
M  ZZI   5 231
M  ZZM   6 1
M  ZZI   6 112
M  ZZM   7 1
M  ZZI   7 112
M  ZZM   8 1
M  ZZI   8 112
M  ZZM   9 56
M  ZZI   9 232
M  ZZM  10 57
M  ZZI  10 103
M  ZZM  11 56
M  ZZI  11 232
M  ZZM  12 56
M  ZZI  12 232
M  ZZM  13 28
M  ZZI  13 11
M  ZZM  14 28
M  ZZI  14 11
M  ZZM  15 5
M  ZZI  15 1
M  ZZM  16 36
M  ZZI  16 17
M  ZZM  17 36
M  ZZI  17 17
M  ZZM  18 36
M  ZZI  18 17
M  ZZM  19 5
M  ZZI  19 1
M  ZZM  20 5
M  ZZI  20 1
M  ZZM  21 5
M  ZZI  21 1
M  ZZM  22 5
M  ZZI  22 1
M  ZZM  23 5
M  ZZI  23 1
M  ZZM  24 5
M  ZZI  24 1
M  ZZM  25 36
M  ZZI  25 17
M  ZZM  26 36
M  ZZI  26 17
M  ZZM  27 36
M  ZZI  27 17
M  ZZM  28 36
M  ZZI  28 17
M  ZZM  29 36
M  ZZI  29 17
M  CHG  4   5   1   9   0  11   1  12   0
M  END
> <IX>
1

> <NAME>
Ubr1_3K6P_1.pdb

> <Score>
-1.905808

> <Natom>
29

> <Nflex>
5

> <Hbond>
-6.634466

> <Hphob>
-2.119318

> <VwInt>
-12.090133

> <Dsolv>
14.821103

> <SolEl>
17.38848

> <Eintl>
4.662071

> <RecConf>
ND

> <projPath>
Ubr1_maps/

> <NAME_>
Ubr1_3K6P_1.pdb

$$$$
