VHL_4IM0_10.pdb
  MOLSOFT 04032206383D

 65 67  0  0  1  0  0  0  0  0999 V2000
   18.0571   -7.0348   -5.1162 C   0  0  0  0  0  0  0  0  0  0  0  0
   16.9131   -6.0608   -5.0665 C   0  0  0  0  0  0  0  0  0  0  0  0
   15.8372   -6.3334   -5.5702 O   0  0  0  0  0  0  0  0  0  0  0  0
   17.2029   -4.8998   -4.3788 N   0  0  0  0  0  0  0  0  0  0  0  0
   16.2652   -3.7806   -4.2078 C   0  0  1  0  0  0  0  0  0  0  0  0
   15.8552   -3.5629   -2.7198 C   0  0  0  0  0  0  0  0  0  0  0  0
   15.3298   -4.8872   -2.1507 C   0  0  0  0  0  0  0  0  0  0  0  0
   14.7212   -2.5362   -2.5841 C   0  0  0  0  0  0  0  0  0  0  0  0
   17.0269   -3.0768   -1.8543 C   0  0  0  0  0  0  0  0  0  0  0  0
   16.9635   -2.5786   -4.8671 C   0  0  0  0  0  0  0  0  0  0  0  0
   18.1671   -2.3989   -4.7392 O   0  0  0  0  0  0  0  0  0  0  0  0
   16.1914   -1.6750   -5.5935 N   0  0  0  0  0  0  0  0  0  0  0  0
   16.8269   -0.5845   -6.3206 C   0  0  2  0  0  0  0  0  0  0  0  0
   17.3620    0.5067   -5.3960 C   0  0  0  0  0  0  0  0  0  0  0  0
   16.9153    0.7080   -4.2745 O   0  0  0  0  0  0  0  0  0  0  0  0
   18.3235    1.2965   -6.0029 N   0  0  0  0  0  0  0  0  0  0  0  0
   18.6888    2.5976   -5.4779 C   0  0  0  0  0  0  0  0  0  0  0  0
   17.6883    3.6082   -5.9719 C   0  0  0  0  0  0  0  0  0  0  0  0
   16.4428    3.6946   -5.3591 C   0  0  0  0  0  0  0  0  0  0  0  0
   15.4138    4.3882   -5.9565 C   0  0  0  0  0  0  0  0  0  0  0  0
   15.6207    5.0439   -7.1597 C   0  0  0  0  0  0  0  0  0  0  0  0
   14.4789    5.5982   -7.8537 C   0  0  0  0  0  0  0  0  0  0  0  0
   13.4492    4.9378   -8.5085 C   0  0  0  0  0  0  0  0  0  0  0  0
   13.3291    3.4771   -8.7364 C   0  0  0  0  0  0  0  0  0  0  0  0
   12.4361    5.7548   -8.9557 N   0  0  0  0  0  0  0  0  0  0  0  0
   12.7450    7.0062   -8.6956 C   0  0  0  0  0  0  0  0  0  0  0  0
   14.2238    7.2912   -7.8998 S   0  0  0  0  0  0  0  0  0  0  0  0
   16.8973    5.0814   -7.7075 C   0  0  0  0  0  0  0  0  0  0  0  0
   17.9218    4.3518   -7.1257 C   0  0  0  0  0  0  0  0  0  0  0  0
   15.7352   -0.0332   -7.2376 C   0  0  0  0  0  0  0  0  0  0  0  0
   14.4568   -0.3977   -6.5046 C   0  0  1  0  0  0  0  0  0  0  0  0
   13.3415   -0.4500   -7.3898 O   0  0  0  0  0  0  0  0  0  0  0  0
   14.7965   -1.7684   -5.9544 C   0  0  0  0  0  0  0  0  0  0  0  0
   19.0149   -6.5115   -5.1954 H   0  0  0  0  0  0  0  0  0  0  0  0
   17.9439   -7.6828   -5.9901 H   0  0  0  0  0  0  0  0  0  0  0  0
   18.0406   -7.6457   -4.2107 H   0  0  0  0  0  0  0  0  0  0  0  0
   18.1555   -4.7670   -4.0566 H   0  0  0  0  0  0  0  0  0  0  0  0
   15.3665   -4.0227   -4.7687 H   0  0  0  0  0  0  0  0  0  0  0  0
   14.9969   -4.7681   -1.1166 H   0  0  0  0  0  0  0  0  0  0  0  0
   16.0960   -5.6648   -2.1588 H   0  0  0  0  0  0  0  0  0  0  0  0
   14.4789   -5.2628   -2.7278 H   0  0  0  0  0  0  0  0  0  0  0  0
   15.0217   -1.5565   -2.9701 H   0  0  0  0  0  0  0  0  0  0  0  0
   14.4400   -2.3880   -1.5372 H   0  0  0  0  0  0  0  0  0  0  0  0
   13.8289   -2.8340   -3.1420 H   0  0  0  0  0  0  0  0  0  0  0  0
   16.7423   -3.0072   -0.7994 H   0  0  0  0  0  0  0  0  0  0  0  0
   17.3751   -2.0847   -2.1580 H   0  0  0  0  0  0  0  0  0  0  0  0
   17.8770   -3.7542   -1.9104 H   0  0  0  0  0  0  0  0  0  0  0  0
   17.6553   -0.9822   -6.9039 H   0  0  0  0  0  0  0  0  0  0  0  0
   18.6910    1.0245   -6.9101 H   0  0  0  0  0  0  0  0  0  0  0  0
   18.7071    2.5691   -4.3828 H   0  0  0  0  0  0  0  0  0  0  0  0
   19.6992    2.8337   -5.8274 H   0  0  0  0  0  0  0  0  0  0  0  0
   16.2381    3.1489   -4.4428 H   0  0  0  0  0  0  0  0  0  0  0  0
   14.4284    4.3721   -5.4983 H   0  0  0  0  0  0  0  0  0  0  0  0
   12.4383    3.2503   -9.3289 H   0  0  0  0  0  0  0  0  0  0  0  0
   13.2391    2.9344   -7.7915 H   0  0  0  0  0  0  0  0  0  0  0  0
   14.2029    3.0874   -9.2654 H   0  0  0  0  0  0  0  0  0  0  0  0
   12.1035    7.8283   -8.9578 H   0  0  0  0  0  0  0  0  0  0  0  0
   17.0861    5.6314   -8.6251 H   0  0  0  0  0  0  0  0  0  0  0  0
   18.8918    4.3216   -7.6133 H   0  0  0  0  0  0  0  0  0  0  0  0
   15.8061    1.0425   -7.4296 H   0  0  0  0  0  0  0  0  0  0  0  0
   15.7646   -0.5300   -8.2150 H   0  0  0  0  0  0  0  0  0  0  0  0
   14.2550    0.3226   -5.7024 H   0  0  0  0  0  0  0  0  0  0  0  0
   12.5332   -0.3491   -6.8566 H   0  0  0  0  0  0  0  0  0  0  0  0
   14.7218   -2.5262   -6.7383 H   0  0  0  0  0  0  0  0  0  0  0  0
   14.1526   -2.0692   -5.1289 H   0  0  0  0  0  0  0  0  0  0  0  0
  1 34  1  0  0  0  0
  1 35  1  0  0  0  0
  1 36  1  0  0  0  0
  1  2  1  0  0  0  0
  2  3  2  0  0  0  0
  2  4  1  0  0  0  0
  4 37  1  0  0  0  0
  5  4  1  0  0  0  0
  5 38  1  0  0  0  0
  5  6  1  0  0  0  0
  5 10  1  0  0  0  0
  6  7  1  0  0  0  0
  6  8  1  0  0  0  0
  6  9  1  0  0  0  0
  7 39  1  0  0  0  0
  7 40  1  0  0  0  0
  7 41  1  0  0  0  0
  8 42  1  0  0  0  0
  8 43  1  0  0  0  0
  8 44  1  0  0  0  0
  9 45  1  0  0  0  0
  9 46  1  0  0  0  0
  9 47  1  0  0  0  0
 10 11  2  0  0  0  0
 10 12  1  0  0  0  0
 12 33  1  0  0  0  0
 13 12  1  0  0  0  0
 13 30  1  0  0  0  0
 13 48  1  0  0  0  0
 13 14  1  0  0  0  0
 14 15  2  0  0  0  0
 14 16  1  0  0  0  0
 16 49  1  0  0  0  0
 16 17  1  0  0  0  0
 17 50  1  0  0  0  0
 17 51  1  0  0  0  0
 17 18  1  0  0  0  0
 18 19  1  0  0  0  0
 18 29  2  0  0  0  0
 19 52  1  0  0  0  0
 19 20  2  0  0  0  0
 20 53  1  0  0  0  0
 20 21  1  0  0  0  0
 21 28  2  0  0  0  0
 21 22  1  0  0  0  0
 22 23  2  0  0  0  0
 22 27  1  0  0  0  0
 23 24  1  0  0  0  0
 23 25  1  0  0  0  0
 24 54  1  0  0  0  0
 24 55  1  0  0  0  0
 24 56  1  0  0  0  0
 25 26  2  0  0  0  0
 26 57  1  0  0  0  0
 26 27  1  0  0  0  0
 28 58  1  0  0  0  0
 28 29  1  0  0  0  0
 29 59  1  0  0  0  0
 31 30  1  0  0  0  0
 30 60  1  0  0  0  0
 30 61  1  0  0  0  0
 31 33  1  0  0  0  0
 31 62  1  0  0  0  0
 31 32  1  0  0  0  0
 32 63  1  0  0  0  0
 33 64  1  0  0  0  0
 33 65  1  0  0  0  0
M  ZZC   1 c1
M  ZZC   2 c2
M  ZZC   3 o1
M  ZZC   4 n1
M  ZZC   5 c3
M  ZZC   6 c4
M  ZZC   7 c5
M  ZZC   8 c6
M  ZZC   9 c7
M  ZZC  10 c8
M  ZZC  11 o2
M  ZZC  12 n2
M  ZZC  13 c9
M  ZZC  14 c10
M  ZZC  15 o3
M  ZZC  16 n3
M  ZZC  17 c11
M  ZZC  18 c12
M  ZZC  19 c13
M  ZZC  20 c14
M  ZZC  21 c15
M  ZZC  22 c16
M  ZZC  23 c17
M  ZZC  24 c18
M  ZZC  25 n4
M  ZZC  26 c19
M  ZZC  27 s1
M  ZZC  28 c20
M  ZZC  29 c21
M  ZZC  30 c22
M  ZZC  31 c23
M  ZZC  32 o4
M  ZZC  33 c24
M  ZZC  34 h11
M  ZZC  35 h12
M  ZZC  36 h13
M  ZZC  37 h01
M  ZZC  38 h31
M  ZZC  39 h51
M  ZZC  40 h52
M  ZZC  41 h53
M  ZZC  42 h61
M  ZZC  43 h62
M  ZZC  44 h63
M  ZZC  45 h71
M  ZZC  46 h72
M  ZZC  47 h73
M  ZZC  48 h91
M  ZZC  49 h02
M  ZZC  50 h111
M  ZZC  51 h112
M  ZZC  52 h131
M  ZZC  53 h141
M  ZZC  54 h181
M  ZZC  55 h182
M  ZZC  56 h183
M  ZZC  57 h191
M  ZZC  58 h201
M  ZZC  59 h211
M  ZZC  60 h221
M  ZZC  61 h222
M  ZZC  62 h231
M  ZZC  63 h41
M  ZZC  64 h241
M  ZZC  65 h242
M  ZZM   1 1
M  ZZI   1 111
M  ZZM   2 3
M  ZZI   2 121
M  ZZM   3 7
M  ZZI   3 81
M  ZZM   4 10
M  ZZI   4 211
M  ZZM   5 1
M  ZZI   5 113
M  ZZM   6 1
M  ZZI   6 110
M  ZZM   7 1
M  ZZI   7 111
M  ZZM   8 1
M  ZZI   8 111
M  ZZM   9 1
M  ZZI   9 111
M  ZZM  10 3
M  ZZI  10 121
M  ZZM  11 7
M  ZZI  11 81
M  ZZM  12 10
M  ZZI  12 192
M  ZZM  13 1
M  ZZI  13 113
M  ZZM  14 3
M  ZZI  14 121
M  ZZM  15 7
M  ZZI  15 81
M  ZZM  16 10
M  ZZI  16 211
M  ZZM  17 1
M  ZZI  17 112
M  ZZM  18 37
M  ZZI  18 124
M  ZZM  19 37
M  ZZI  19 125
M  ZZM  20 37
M  ZZI  20 125
M  ZZM  21 37
M  ZZI  21 124
M  ZZM  22 63
M  ZZI  22 104
M  ZZM  23 64
M  ZZI  23 105
M  ZZM  24 1
M  ZZI  24 111
M  ZZM  25 66
M  ZZI  25 222
M  ZZM  26 63
M  ZZI  26 104
M  ZZM  27 44
M  ZZI  27 248
M  ZZM  28 37
M  ZZI  28 125
M  ZZM  29 37
M  ZZI  29 125
M  ZZM  30 1
M  ZZI  30 112
M  ZZM  31 1
M  ZZI  31 113
M  ZZM  32 6
M  ZZI  32 60
M  ZZM  33 1
M  ZZI  33 112
M  ZZM  34 5
M  ZZI  34 1
M  ZZM  35 5
M  ZZI  35 1
M  ZZM  36 5
M  ZZI  36 1
M  ZZM  37 28
M  ZZI  37 11
M  ZZM  38 5
M  ZZI  38 1
M  ZZM  39 5
M  ZZI  39 1
M  ZZM  40 5
M  ZZI  40 1
M  ZZM  41 5
M  ZZI  41 1
M  ZZM  42 5
M  ZZI  42 1
M  ZZM  43 5
M  ZZI  43 1
M  ZZM  44 5
M  ZZI  44 1
M  ZZM  45 5
M  ZZI  45 1
M  ZZM  46 5
M  ZZI  46 1
M  ZZM  47 5
M  ZZI  47 1
M  ZZM  48 5
M  ZZI  48 1
M  ZZM  49 28
M  ZZI  49 11
M  ZZM  50 5
M  ZZI  50 1
M  ZZM  51 5
M  ZZI  51 1
M  ZZM  52 5
M  ZZI  52 1
M  ZZM  53 5
M  ZZI  53 1
M  ZZM  54 5
M  ZZI  54 1
M  ZZM  55 5
M  ZZI  55 1
M  ZZM  56 5
M  ZZI  56 1
M  ZZM  57 5
M  ZZI  57 1
M  ZZM  58 5
M  ZZI  58 1
M  ZZM  59 5
M  ZZI  59 1
M  ZZM  60 5
M  ZZI  60 1
M  ZZM  61 5
M  ZZI  61 1
M  ZZM  62 5
M  ZZI  62 1
M  ZZM  63 21
M  ZZI  63 20
M  ZZM  64 5
M  ZZI  64 1
M  ZZM  65 5
M  ZZI  65 1
M  END
> <IX>
1

> <NAME>
VHL_4IM0_10.pdb

> <Score>
-7.407604

> <Natom>
65

> <Nflex>
8

> <Hbond>
-6.248949

> <Hphob>
-6.810282

> <VwInt>
-28.29946

> <Dsolv>
21.529581

> <SolEl>
23.956447

> <Eintl>
7.510242

> <RecConf>
ND

> <projPath>
VHL_maps/

> <NAME_>
VHL_4IM0_10.pdb

$$$$
