VHL_6HAZ_2.pdb
  MOLSOFT 04032206433D

 70 73  0  0  1  0  0  0  0  0999 V2000
   18.7425   -5.3903   -5.9387 F   0  0  0  0  0  0  0  0  0  0  0  0
   17.7006   -5.9706   -5.2210 C   0  0  0  0  0  0  0  0  0  0  0  0
   16.8209   -5.0275   -4.4645 C   0  0  0  0  0  0  0  0  0  0  0  0
   15.7521   -5.3900   -3.9949 O   0  0  0  0  0  0  0  0  0  0  0  0
   17.3014   -3.7378   -4.3693 N   0  0  0  0  0  0  0  0  0  0  0  0
   16.4602   -2.6155   -3.9334 C   0  0  1  0  0  0  0  0  0  0  0  0
   16.6641   -2.1769   -2.4505 C   0  0  0  0  0  0  0  0  0  0  0  0
   18.0654   -1.6074   -2.1920 C   0  0  0  0  0  0  0  0  0  0  0  0
   15.6356   -1.1013   -2.0685 C   0  0  0  0  0  0  0  0  0  0  0  0
   16.4416   -3.3714   -1.5086 C   0  0  0  0  0  0  0  0  0  0  0  0
   16.7431   -1.5100   -4.9719 C   0  0  0  0  0  0  0  0  0  0  0  0
   17.8937   -1.1964   -5.2546 O   0  0  0  0  0  0  0  0  0  0  0  0
   15.6418   -0.9386   -5.6118 N   0  0  0  0  0  0  0  0  0  0  0  0
   15.8070   -0.0954   -6.7899 C   0  0  2  0  0  0  0  0  0  0  0  0
   16.1211    1.3598   -6.4223 C   0  0  0  0  0  0  0  0  0  0  0  0
   15.3202    2.0946   -5.8603 O   0  0  0  0  0  0  0  0  0  0  0  0
   17.4042    1.7437   -6.7600 N   0  0  0  0  0  0  0  0  0  0  0  0
   17.9317    3.0655   -6.4659 C   0  0  0  0  0  0  0  0  0  0  0  0
   19.3338    3.2971   -6.9874 C   0  0  0  0  0  0  0  0  0  0  0  0
   20.2803    2.2820   -7.0409 C   0  0  0  0  0  0  0  0  0  0  0  0
   19.9359    1.0206   -6.6128 O   0  0  0  0  0  0  0  0  0  0  0  0
   21.5659    2.4838   -7.4985 C   0  0  0  0  0  0  0  0  0  0  0  0
   21.9728    3.7454   -7.8933 C   0  0  0  0  0  0  0  0  0  0  0  0
   23.3480    3.9450   -8.3182 C   0  0  0  0  0  0  0  0  0  0  0  0
   24.4803    4.2476   -7.5757 C   0  0  0  0  0  0  0  0  0  0  0  0
   24.5425    4.5077   -6.1194 C   0  0  0  0  0  0  0  0  0  0  0  0
   25.6576    4.2814   -8.2957 N   0  0  0  0  0  0  0  0  0  0  0  0
   25.4092    4.0255   -9.5606 C   0  0  0  0  0  0  0  0  0  0  0  0
   23.7770    3.7362   -9.9671 S   0  0  0  0  0  0  0  0  0  0  0  0
   21.0503    4.7856   -7.8392 C   0  0  0  0  0  0  0  0  0  0  0  0
   19.7506    4.5637   -7.3957 C   0  0  0  0  0  0  0  0  0  0  0  0
   14.4723   -0.2187   -7.5059 C   0  0  0  0  0  0  0  0  0  0  0  0
   13.4582   -0.4390   -6.3947 C   0  0  1  0  0  0  0  0  0  0  0  0
   12.3371   -1.1972   -6.8512 O   0  0  0  0  0  0  0  0  0  0  0  0
   14.2403   -1.2367   -5.3670 C   0  0  0  0  0  0  0  0  0  0  0  0
   17.1211   -7.2090   -5.8668 C   0  0  0  0  0  0  0  0  0  0  0  0
   18.0082   -7.3368   -4.6741 C   0  0  0  0  0  0  0  0  0  0  0  0
   18.2262   -3.5423   -4.7463 H   0  0  0  0  0  0  0  0  0  0  0  0
   15.4279   -2.9563   -4.0370 H   0  0  0  0  0  0  0  0  0  0  0  0
   18.2193   -1.3884   -1.1306 H   0  0  0  0  0  0  0  0  0  0  0  0
   18.2375   -0.6736   -2.7351 H   0  0  0  0  0  0  0  0  0  0  0  0
   18.8395   -2.3139   -2.4890 H   0  0  0  0  0  0  0  0  0  0  0  0
   15.7404   -0.2089   -2.6944 H   0  0  0  0  0  0  0  0  0  0  0  0
   15.7607   -0.7785   -1.0297 H   0  0  0  0  0  0  0  0  0  0  0  0
   14.6078   -1.4566   -2.1908 H   0  0  0  0  0  0  0  0  0  0  0  0
   16.5087   -3.0723   -0.4576 H   0  0  0  0  0  0  0  0  0  0  0  0
   17.1869   -4.1544   -1.6620 H   0  0  0  0  0  0  0  0  0  0  0  0
   15.4530   -3.8196   -1.6545 H   0  0  0  0  0  0  0  0  0  0  0  0
   16.6117   -0.4946   -7.4189 H   0  0  0  0  0  0  0  0  0  0  0  0
   18.0568    1.0368   -7.0943 H   0  0  0  0  0  0  0  0  0  0  0  0
   17.2372    3.7937   -6.8996 H   0  0  0  0  0  0  0  0  0  0  0  0
   17.9166    3.1995   -5.3790 H   0  0  0  0  0  0  0  0  0  0  0  0
   20.3833    0.3918   -7.2072 H   0  0  0  0  0  0  0  0  0  0  0  0
   22.2585    1.6514   -7.5344 H   0  0  0  0  0  0  0  0  0  0  0  0
   23.9597    5.3959   -5.8594 H   0  0  0  0  0  0  0  0  0  0  0  0
   25.5732    4.6723   -5.7919 H   0  0  0  0  0  0  0  0  0  0  0  0
   24.1472    3.6594   -5.5549 H   0  0  0  0  0  0  0  0  0  0  0  0
   26.1881    3.9978  -10.3092 H   0  0  0  0  0  0  0  0  0  0  0  0
   21.3413    5.7865   -8.1442 H   0  0  0  0  0  0  0  0  0  0  0  0
   19.0576    5.3997   -7.3666 H   0  0  0  0  0  0  0  0  0  0  0  0
   14.2223    0.6444   -8.1323 H   0  0  0  0  0  0  0  0  0  0  0  0
   14.5011   -1.0997   -8.1539 H   0  0  0  0  0  0  0  0  0  0  0  0
   13.1046    0.5086   -5.9737 H   0  0  0  0  0  0  0  0  0  0  0  0
   11.8754   -0.6817   -7.5379 H   0  0  0  0  0  0  0  0  0  0  0  0
   14.0680   -2.3118   -5.4745 H   0  0  0  0  0  0  0  0  0  0  0  0
   13.9667   -0.9528   -4.3481 H   0  0  0  0  0  0  0  0  0  0  0  0
   16.0720   -7.4288   -5.7352 H   0  0  0  0  0  0  0  0  0  0  0  0
   17.5279   -7.5469   -6.8085 H   0  0  0  0  0  0  0  0  0  0  0  0
   18.9998   -7.7320   -4.8471 H   0  0  0  0  0  0  0  0  0  0  0  0
   17.5498   -7.6377   -3.7427 H   0  0  0  0  0  0  0  0  0  0  0  0
  2  1  1  0  0  0  0
  2 36  1  0  0  0  0
  2  3  1  0  0  0  0
  2 37  1  0  0  0  0
  3  4  2  0  0  0  0
  3  5  1  0  0  0  0
  5 38  1  0  0  0  0
  6  5  1  0  0  0  0
  6 39  1  0  0  0  0
  6  7  1  0  0  0  0
  6 11  1  0  0  0  0
  7  8  1  0  0  0  0
  7  9  1  0  0  0  0
  7 10  1  0  0  0  0
  8 40  1  0  0  0  0
  8 41  1  0  0  0  0
  8 42  1  0  0  0  0
  9 43  1  0  0  0  0
  9 44  1  0  0  0  0
  9 45  1  0  0  0  0
 10 46  1  0  0  0  0
 10 47  1  0  0  0  0
 10 48  1  0  0  0  0
 11 12  2  0  0  0  0
 11 13  1  0  0  0  0
 13 35  1  0  0  0  0
 14 13  1  0  0  0  0
 14 32  1  0  0  0  0
 14 49  1  0  0  0  0
 14 15  1  0  0  0  0
 15 16  2  0  0  0  0
 15 17  1  0  0  0  0
 17 50  1  0  0  0  0
 17 18  1  0  0  0  0
 18 51  1  0  0  0  0
 18 52  1  0  0  0  0
 18 19  1  0  0  0  0
 19 20  2  0  0  0  0
 19 31  1  0  0  0  0
 20 21  1  0  0  0  0
 20 22  1  0  0  0  0
 21 53  1  0  0  0  0
 22 54  1  0  0  0  0
 22 23  2  0  0  0  0
 23 30  1  0  0  0  0
 23 24  1  0  0  0  0
 24 25  2  0  0  0  0
 24 29  1  0  0  0  0
 25 26  1  0  0  0  0
 25 27  1  0  0  0  0
 26 55  1  0  0  0  0
 26 56  1  0  0  0  0
 26 57  1  0  0  0  0
 27 28  2  0  0  0  0
 28 58  1  0  0  0  0
 28 29  1  0  0  0  0
 30 59  1  0  0  0  0
 30 31  2  0  0  0  0
 31 60  1  0  0  0  0
 33 32  1  0  0  0  0
 32 61  1  0  0  0  0
 32 62  1  0  0  0  0
 33 35  1  0  0  0  0
 33 63  1  0  0  0  0
 33 34  1  0  0  0  0
 34 64  1  0  0  0  0
 35 65  1  0  0  0  0
 35 66  1  0  0  0  0
 36 67  1  0  0  0  0
 36 68  1  0  0  0  0
 36 37  1  0  0  0  0
 37 69  1  0  0  0  0
 37 70  1  0  0  0  0
M  ZZC   1 f1
M  ZZC   2 c1
M  ZZC   3 c2
M  ZZC   4 o1
M  ZZC   5 n1
M  ZZC   6 c3
M  ZZC   7 c4
M  ZZC   8 c5
M  ZZC   9 c6
M  ZZC  10 c7
M  ZZC  11 c8
M  ZZC  12 o2
M  ZZC  13 n2
M  ZZC  14 c9
M  ZZC  15 c10
M  ZZC  16 o3
M  ZZC  17 n3
M  ZZC  18 c11
M  ZZC  19 c12
M  ZZC  20 c13
M  ZZC  21 o4
M  ZZC  22 c14
M  ZZC  23 c15
M  ZZC  24 c16
M  ZZC  25 c17
M  ZZC  26 c18
M  ZZC  27 n4
M  ZZC  28 c19
M  ZZC  29 s1
M  ZZC  30 c20
M  ZZC  31 c21
M  ZZC  32 c22
M  ZZC  33 c23
M  ZZC  34 o5
M  ZZC  35 c24
M  ZZC  36 c25
M  ZZC  37 c26
M  ZZC  38 h11
M  ZZC  39 h31
M  ZZC  40 h51
M  ZZC  41 h52
M  ZZC  42 h53
M  ZZC  43 h61
M  ZZC  44 h62
M  ZZC  45 h63
M  ZZC  46 h71
M  ZZC  47 h72
M  ZZC  48 h73
M  ZZC  49 h91
M  ZZC  50 h01
M  ZZC  51 h111
M  ZZC  52 h112
M  ZZC  53 h41
M  ZZC  54 h141
M  ZZC  55 h181
M  ZZC  56 h182
M  ZZC  57 h183
M  ZZC  58 h191
M  ZZC  59 h201
M  ZZC  60 h211
M  ZZC  61 h221
M  ZZC  62 h222
M  ZZC  63 h231
M  ZZC  64 h02
M  ZZC  65 h241
M  ZZC  66 h242
M  ZZC  67 h251
M  ZZC  68 h252
M  ZZC  69 h261
M  ZZC  70 h262
M  ZZM   1 11
M  ZZI   1 90
M  ZZM   2 22
M  ZZI   2 109
M  ZZM   3 3
M  ZZI   3 121
M  ZZM   4 7
M  ZZI   4 81
M  ZZM   5 10
M  ZZI   5 211
M  ZZM   6 1
M  ZZI   6 113
M  ZZM   7 1
M  ZZI   7 110
M  ZZM   8 1
M  ZZI   8 111
M  ZZM   9 1
M  ZZI   9 111
M  ZZM  10 1
M  ZZI  10 111
M  ZZM  11 3
M  ZZI  11 121
M  ZZM  12 7
M  ZZI  12 81
M  ZZM  13 10
M  ZZI  13 192
M  ZZM  14 1
M  ZZI  14 113
M  ZZM  15 3
M  ZZI  15 121
M  ZZM  16 7
M  ZZI  16 81
M  ZZM  17 10
M  ZZI  17 211
M  ZZM  18 1
M  ZZI  18 112
M  ZZM  19 37
M  ZZI  19 124
M  ZZM  20 37
M  ZZI  20 124
M  ZZM  21 6
M  ZZI  21 62
M  ZZM  22 37
M  ZZI  22 125
M  ZZM  23 37
M  ZZI  23 124
M  ZZM  24 63
M  ZZI  24 104
M  ZZM  25 64
M  ZZI  25 105
M  ZZM  26 1
M  ZZI  26 111
M  ZZM  27 66
M  ZZI  27 222
M  ZZM  28 63
M  ZZI  28 104
M  ZZM  29 44
M  ZZI  29 248
M  ZZM  30 37
M  ZZI  30 125
M  ZZM  31 37
M  ZZI  31 125
M  ZZM  32 1
M  ZZI  32 112
M  ZZM  33 1
M  ZZI  33 113
M  ZZM  34 6
M  ZZI  34 60
M  ZZM  35 1
M  ZZI  35 112
M  ZZM  36 22
M  ZZI  36 109
M  ZZM  37 22
M  ZZI  37 109
M  ZZM  38 28
M  ZZI  38 11
M  ZZM  39 5
M  ZZI  39 1
M  ZZM  40 5
M  ZZI  40 1
M  ZZM  41 5
M  ZZI  41 1
M  ZZM  42 5
M  ZZI  42 1
M  ZZM  43 5
M  ZZI  43 1
M  ZZM  44 5
M  ZZI  44 1
M  ZZM  45 5
M  ZZI  45 1
M  ZZM  46 5
M  ZZI  46 1
M  ZZM  47 5
M  ZZI  47 1
M  ZZM  48 5
M  ZZI  48 1
M  ZZM  49 5
M  ZZI  49 1
M  ZZM  50 28
M  ZZI  50 11
M  ZZM  51 5
M  ZZI  51 1
M  ZZM  52 5
M  ZZI  52 1
M  ZZM  53 29
M  ZZI  53 27
M  ZZM  54 5
M  ZZI  54 1
M  ZZM  55 5
M  ZZI  55 1
M  ZZM  56 5
M  ZZI  56 1
M  ZZM  57 5
M  ZZI  57 1
M  ZZM  58 5
M  ZZI  58 1
M  ZZM  59 5
M  ZZI  59 1
M  ZZM  60 5
M  ZZI  60 1
M  ZZM  61 5
M  ZZI  61 1
M  ZZM  62 5
M  ZZI  62 1
M  ZZM  63 5
M  ZZI  63 1
M  ZZM  64 21
M  ZZI  64 20
M  ZZM  65 5
M  ZZI  65 1
M  ZZM  66 5
M  ZZI  66 1
M  ZZM  67 5
M  ZZI  67 1
M  ZZM  68 5
M  ZZI  68 1
M  ZZM  69 5
M  ZZI  69 1
M  ZZM  70 5
M  ZZI  70 1
M  END
> <IX>
1

> <NAME>
VHL_6HAZ_2.pdb

> <Score>
-23.740632

> <Natom>
70

> <Nflex>
9

> <Hbond>
-8.665855

> <Hphob>
-6.302171

> <VwInt>
-33.434365

> <Dsolv>
20.368455

> <SolEl>
14.670971

> <Eintl>
9.13603

> <RecConf>
ND

> <projPath>
VHL_maps/

> <NAME_>
VHL_6HAZ_2.pdb

$$$$
