VHL_5T8E_38.pdb
  MOLSOFT 04032206423D

 65 67  0  0  1  0  0  0  0  0999 V2000
   18.0957   -7.0470   -5.1336 C   0  0  0  0  0  0  0  0  0  0  0  0
   16.9460   -6.0808   -5.0824 C   0  0  0  0  0  0  0  0  0  0  0  0
   15.8727   -6.3601   -5.5882 O   0  0  0  0  0  0  0  0  0  0  0  0
   17.2273   -4.9189   -4.3922 N   0  0  0  0  0  0  0  0  0  0  0  0
   16.2825   -3.8049   -4.2313 C   0  0  1  0  0  0  0  0  0  0  0  0
   15.8665   -3.5766   -2.7458 C   0  0  0  0  0  0  0  0  0  0  0  0
   17.0330   -3.0759   -1.8818 C   0  0  0  0  0  0  0  0  0  0  0  0
   15.3473   -4.8987   -2.1662 C   0  0  0  0  0  0  0  0  0  0  0  0
   14.7255   -2.5556   -2.6209 C   0  0  0  0  0  0  0  0  0  0  0  0
   16.9650   -2.5978   -4.8999 C   0  0  0  0  0  0  0  0  0  0  0  0
   18.1658   -2.3991   -4.7738 O   0  0  0  0  0  0  0  0  0  0  0  0
   16.1742   -1.7072   -5.6227 N   0  0  0  0  0  0  0  0  0  0  0  0
   16.7764   -0.5883   -6.3361 C   0  0  2  0  0  0  0  0  0  0  0  0
   17.3175    0.4890   -5.3988 C   0  0  0  0  0  0  0  0  0  0  0  0
   16.8650    0.6853   -4.2788 O   0  0  0  0  0  0  0  0  0  0  0  0
   18.2863    1.2773   -5.9961 N   0  0  0  0  0  0  0  0  0  0  0  0
   18.6567    2.5733   -5.4628 C   0  0  0  0  0  0  0  0  0  0  0  0
   17.6652    3.5921   -5.9578 C   0  0  0  0  0  0  0  0  0  0  0  0
   17.9089    4.3386   -7.1075 C   0  0  0  0  0  0  0  0  0  0  0  0
   16.8919    5.0766   -7.6916 C   0  0  0  0  0  0  0  0  0  0  0  0
   15.6129    5.0458   -7.1493 C   0  0  0  0  0  0  0  0  0  0  0  0
   14.4771    5.6067   -7.8478 C   0  0  0  0  0  0  0  0  0  0  0  0
   13.4494    4.9507   -8.5095 C   0  0  0  0  0  0  0  0  0  0  0  0
   13.3296    3.4916   -8.7448 C   0  0  0  0  0  0  0  0  0  0  0  0
   12.4392    5.7701   -8.9577 N   0  0  0  0  0  0  0  0  0  0  0  0
   12.7487    7.0202   -8.6917 C   0  0  0  0  0  0  0  0  0  0  0  0
   14.2252    7.2999   -7.8887 S   0  0  0  0  0  0  0  0  0  0  0  0
   15.3963    4.3869   -5.9493 C   0  0  0  0  0  0  0  0  0  0  0  0
   16.4180    3.6846   -5.3495 C   0  0  0  0  0  0  0  0  0  0  0  0
   15.6534   -0.0268   -7.2118 C   0  0  0  0  0  0  0  0  0  0  0  0
   14.3944   -0.4676   -6.4845 C   0  0  1  0  0  0  0  0  0  0  0  0
   13.2618   -0.5390   -7.3457 O   0  0  0  0  0  0  0  0  0  0  0  0
   14.7874   -1.8442   -5.9968 C   0  0  0  0  0  0  0  0  0  0  0  0
   19.0527   -6.5183   -5.1793 H   0  0  0  0  0  0  0  0  0  0  0  0
   18.0040   -7.6727   -6.0260 H   0  0  0  0  0  0  0  0  0  0  0  0
   18.0634   -7.6806   -4.2443 H   0  0  0  0  0  0  0  0  0  0  0  0
   18.1777   -4.7793   -4.0674 H   0  0  0  0  0  0  0  0  0  0  0  0
   15.3875   -4.0626   -4.7898 H   0  0  0  0  0  0  0  0  0  0  0  0
   16.7447   -2.9972   -0.8286 H   0  0  0  0  0  0  0  0  0  0  0  0
   17.3773   -2.0852   -2.1943 H   0  0  0  0  0  0  0  0  0  0  0  0
   17.8864   -3.7499   -1.9281 H   0  0  0  0  0  0  0  0  0  0  0  0
   15.0133   -4.7736   -1.1330 H   0  0  0  0  0  0  0  0  0  0  0  0
   16.1168   -5.6731   -2.1685 H   0  0  0  0  0  0  0  0  0  0  0  0
   14.4979   -5.2823   -2.7402 H   0  0  0  0  0  0  0  0  0  0  0  0
   15.0194   -1.5789   -3.0195 H   0  0  0  0  0  0  0  0  0  0  0  0
   14.4447   -2.3955   -1.5758 H   0  0  0  0  0  0  0  0  0  0  0  0
   13.8341   -2.8652   -3.1737 H   0  0  0  0  0  0  0  0  0  0  0  0
   17.5940   -0.9594   -6.9523 H   0  0  0  0  0  0  0  0  0  0  0  0
   18.6567    1.0083   -6.9031 H   0  0  0  0  0  0  0  0  0  0  0  0
   18.6692    2.5393   -4.3677 H   0  0  0  0  0  0  0  0  0  0  0  0
   19.6705    2.8047   -5.8058 H   0  0  0  0  0  0  0  0  0  0  0  0
   18.8815    4.3051   -7.5898 H   0  0  0  0  0  0  0  0  0  0  0  0
   17.0884    5.6281   -8.6067 H   0  0  0  0  0  0  0  0  0  0  0  0
   12.4504    3.2684   -9.3558 H   0  0  0  0  0  0  0  0  0  0  0  0
   13.2198    2.9456   -7.8040 H   0  0  0  0  0  0  0  0  0  0  0  0
   14.2133    3.1022   -9.2572 H   0  0  0  0  0  0  0  0  0  0  0  0
   12.1088    7.8436   -8.9537 H   0  0  0  0  0  0  0  0  0  0  0  0
   14.4092    4.3773   -5.4945 H   0  0  0  0  0  0  0  0  0  0  0  0
   16.2065    3.1383   -4.4351 H   0  0  0  0  0  0  0  0  0  0  0  0
   15.6881    1.0585   -7.3521 H   0  0  0  0  0  0  0  0  0  0  0  0
   15.6857   -0.4741   -8.2127 H   0  0  0  0  0  0  0  0  0  0  0  0
   14.1676    0.1950   -5.6407 H   0  0  0  0  0  0  0  0  0  0  0  0
   12.9976    0.3718   -7.5667 H   0  0  0  0  0  0  0  0  0  0  0  0
   14.7527   -2.5662   -6.8171 H   0  0  0  0  0  0  0  0  0  0  0  0
   14.1497   -2.2118   -5.1937 H   0  0  0  0  0  0  0  0  0  0  0  0
  1 34  1  0  0  0  0
  1 35  1  0  0  0  0
  1 36  1  0  0  0  0
  1  2  1  0  0  0  0
  2  3  2  0  0  0  0
  2  4  1  0  0  0  0
  4 37  1  0  0  0  0
  5  4  1  0  0  0  0
  5 38  1  0  0  0  0
  5  6  1  0  0  0  0
  5 10  1  0  0  0  0
  6  7  1  0  0  0  0
  6  8  1  0  0  0  0
  6  9  1  0  0  0  0
  7 39  1  0  0  0  0
  7 40  1  0  0  0  0
  7 41  1  0  0  0  0
  8 42  1  0  0  0  0
  8 43  1  0  0  0  0
  8 44  1  0  0  0  0
  9 45  1  0  0  0  0
  9 46  1  0  0  0  0
  9 47  1  0  0  0  0
 10 11  2  0  0  0  0
 10 12  1  0  0  0  0
 12 33  1  0  0  0  0
 13 12  1  0  0  0  0
 13 30  1  0  0  0  0
 13 48  1  0  0  0  0
 13 14  1  0  0  0  0
 14 15  2  0  0  0  0
 14 16  1  0  0  0  0
 16 49  1  0  0  0  0
 16 17  1  0  0  0  0
 17 50  1  0  0  0  0
 17 51  1  0  0  0  0
 17 18  1  0  0  0  0
 18 19  1  0  0  0  0
 18 29  2  0  0  0  0
 19 52  1  0  0  0  0
 19 20  2  0  0  0  0
 20 53  1  0  0  0  0
 20 21  1  0  0  0  0
 21 28  2  0  0  0  0
 21 22  1  0  0  0  0
 22 23  2  0  0  0  0
 22 27  1  0  0  0  0
 23 24  1  0  0  0  0
 23 25  1  0  0  0  0
 24 54  1  0  0  0  0
 24 55  1  0  0  0  0
 24 56  1  0  0  0  0
 25 26  2  0  0  0  0
 26 57  1  0  0  0  0
 26 27  1  0  0  0  0
 28 58  1  0  0  0  0
 28 29  1  0  0  0  0
 29 59  1  0  0  0  0
 31 30  1  0  0  0  0
 30 60  1  0  0  0  0
 30 61  1  0  0  0  0
 31 33  1  0  0  0  0
 31 62  1  0  0  0  0
 31 32  1  0  0  0  0
 32 63  1  0  0  0  0
 33 64  1  0  0  0  0
 33 65  1  0  0  0  0
M  ZZC   1 c1
M  ZZC   2 c2
M  ZZC   3 o1
M  ZZC   4 n1
M  ZZC   5 c3
M  ZZC   6 c4
M  ZZC   7 c5
M  ZZC   8 c6
M  ZZC   9 c7
M  ZZC  10 c8
M  ZZC  11 o2
M  ZZC  12 n2
M  ZZC  13 c9
M  ZZC  14 c10
M  ZZC  15 o3
M  ZZC  16 n3
M  ZZC  17 c11
M  ZZC  18 c12
M  ZZC  19 c13
M  ZZC  20 c14
M  ZZC  21 c15
M  ZZC  22 c16
M  ZZC  23 c17
M  ZZC  24 c18
M  ZZC  25 n4
M  ZZC  26 c19
M  ZZC  27 s1
M  ZZC  28 c20
M  ZZC  29 c21
M  ZZC  30 c22
M  ZZC  31 c23
M  ZZC  32 o4
M  ZZC  33 c24
M  ZZC  34 h11
M  ZZC  35 h12
M  ZZC  36 h13
M  ZZC  37 h01
M  ZZC  38 h31
M  ZZC  39 h51
M  ZZC  40 h52
M  ZZC  41 h53
M  ZZC  42 h61
M  ZZC  43 h62
M  ZZC  44 h63
M  ZZC  45 h71
M  ZZC  46 h72
M  ZZC  47 h73
M  ZZC  48 h91
M  ZZC  49 h02
M  ZZC  50 h111
M  ZZC  51 h112
M  ZZC  52 h131
M  ZZC  53 h141
M  ZZC  54 h181
M  ZZC  55 h182
M  ZZC  56 h183
M  ZZC  57 h191
M  ZZC  58 h201
M  ZZC  59 h211
M  ZZC  60 h221
M  ZZC  61 h222
M  ZZC  62 h231
M  ZZC  63 h41
M  ZZC  64 h241
M  ZZC  65 h242
M  ZZM   1 1
M  ZZI   1 111
M  ZZM   2 3
M  ZZI   2 121
M  ZZM   3 7
M  ZZI   3 81
M  ZZM   4 10
M  ZZI   4 211
M  ZZM   5 1
M  ZZI   5 113
M  ZZM   6 1
M  ZZI   6 110
M  ZZM   7 1
M  ZZI   7 111
M  ZZM   8 1
M  ZZI   8 111
M  ZZM   9 1
M  ZZI   9 111
M  ZZM  10 3
M  ZZI  10 121
M  ZZM  11 7
M  ZZI  11 81
M  ZZM  12 10
M  ZZI  12 192
M  ZZM  13 1
M  ZZI  13 113
M  ZZM  14 3
M  ZZI  14 121
M  ZZM  15 7
M  ZZI  15 81
M  ZZM  16 10
M  ZZI  16 211
M  ZZM  17 1
M  ZZI  17 112
M  ZZM  18 37
M  ZZI  18 124
M  ZZM  19 37
M  ZZI  19 125
M  ZZM  20 37
M  ZZI  20 125
M  ZZM  21 37
M  ZZI  21 124
M  ZZM  22 63
M  ZZI  22 104
M  ZZM  23 64
M  ZZI  23 105
M  ZZM  24 1
M  ZZI  24 111
M  ZZM  25 66
M  ZZI  25 222
M  ZZM  26 63
M  ZZI  26 104
M  ZZM  27 44
M  ZZI  27 248
M  ZZM  28 37
M  ZZI  28 125
M  ZZM  29 37
M  ZZI  29 125
M  ZZM  30 1
M  ZZI  30 112
M  ZZM  31 1
M  ZZI  31 113
M  ZZM  32 6
M  ZZI  32 60
M  ZZM  33 1
M  ZZI  33 112
M  ZZM  34 5
M  ZZI  34 1
M  ZZM  35 5
M  ZZI  35 1
M  ZZM  36 5
M  ZZI  36 1
M  ZZM  37 28
M  ZZI  37 11
M  ZZM  38 5
M  ZZI  38 1
M  ZZM  39 5
M  ZZI  39 1
M  ZZM  40 5
M  ZZI  40 1
M  ZZM  41 5
M  ZZI  41 1
M  ZZM  42 5
M  ZZI  42 1
M  ZZM  43 5
M  ZZI  43 1
M  ZZM  44 5
M  ZZI  44 1
M  ZZM  45 5
M  ZZI  45 1
M  ZZM  46 5
M  ZZI  46 1
M  ZZM  47 5
M  ZZI  47 1
M  ZZM  48 5
M  ZZI  48 1
M  ZZM  49 28
M  ZZI  49 11
M  ZZM  50 5
M  ZZI  50 1
M  ZZM  51 5
M  ZZI  51 1
M  ZZM  52 5
M  ZZI  52 1
M  ZZM  53 5
M  ZZI  53 1
M  ZZM  54 5
M  ZZI  54 1
M  ZZM  55 5
M  ZZI  55 1
M  ZZM  56 5
M  ZZI  56 1
M  ZZM  57 5
M  ZZI  57 1
M  ZZM  58 5
M  ZZI  58 1
M  ZZM  59 5
M  ZZI  59 1
M  ZZM  60 5
M  ZZI  60 1
M  ZZM  61 5
M  ZZI  61 1
M  ZZM  62 5
M  ZZI  62 1
M  ZZM  63 21
M  ZZI  63 20
M  ZZM  64 5
M  ZZI  64 1
M  ZZM  65 5
M  ZZI  65 1
M  END
> <IX>
1

> <NAME>
VHL_5T8E_38.pdb

> <Score>
-7.413352

> <Natom>
65

> <Nflex>
8

> <Hbond>
-6.012052

> <Hphob>
-6.837906

> <VwInt>
-28.154621

> <Dsolv>
21.626233

> <SolEl>
22.821082

> <Eintl>
7.419279

> <RecConf>
ND

> <projPath>
VHL_maps/

> <NAME_>
VHL_5T8E_38.pdb

$$$$
