VHL_5EU1_12.pdb
  MOLSOFT 04032206413D

 70 73  0  0  1  0  0  0  0  0999 V2000
   17.7328   -7.0963   -3.4893 F   0  0  0  0  0  0  0  0  0  0  0  0
   17.3398   -6.2020   -4.4661 C   0  0  0  0  0  0  0  0  0  0  0  0
   16.4866   -5.0827   -3.9817 C   0  0  0  0  0  0  0  0  0  0  0  0
   15.3169   -5.2772   -3.6905 O   0  0  0  0  0  0  0  0  0  0  0  0
   17.1092   -3.8571   -3.8719 N   0  0  0  0  0  0  0  0  0  0  0  0
   16.3504   -2.6405   -3.5722 C   0  0  1  0  0  0  0  0  0  0  0  0
   16.5992   -2.0802   -2.1413 C   0  0  0  0  0  0  0  0  0  0  0  0
   16.3700   -3.1880   -1.0989 C   0  0  0  0  0  0  0  0  0  0  0  0
   18.0210   -1.5280   -1.9603 C   0  0  0  0  0  0  0  0  0  0  0  0
   15.6009   -0.9500   -1.8463 C   0  0  0  0  0  0  0  0  0  0  0  0
   16.7028   -1.6704   -4.7159 C   0  0  0  0  0  0  0  0  0  0  0  0
   17.8704   -1.4182   -4.9904 O   0  0  0  0  0  0  0  0  0  0  0  0
   15.6404   -1.1461   -5.4506 N   0  0  0  0  0  0  0  0  0  0  0  0
   15.8742   -0.3816   -6.6658 C   0  0  2  0  0  0  0  0  0  0  0  0
   16.1976    1.0799   -6.3500 C   0  0  0  0  0  0  0  0  0  0  0  0
   15.5344    1.7554   -5.5744 O   0  0  0  0  0  0  0  0  0  0  0  0
   17.2847    1.5638   -7.0507 N   0  0  0  0  0  0  0  0  0  0  0  0
   17.7242    2.9412   -6.9102 C   0  0  0  0  0  0  0  0  0  0  0  0
   19.1657    3.1619   -7.3030 C   0  0  0  0  0  0  0  0  0  0  0  0
   19.6016    4.3944   -7.7832 C   0  0  0  0  0  0  0  0  0  0  0  0
   18.6651    5.3988   -7.9525 O   0  0  0  0  0  0  0  0  0  0  0  0
   20.9337    4.6349   -8.1012 C   0  0  0  0  0  0  0  0  0  0  0  0
   21.8720    3.6219   -7.9454 C   0  0  0  0  0  0  0  0  0  0  0  0
   23.2770    3.8295   -8.2576 C   0  0  0  0  0  0  0  0  0  0  0  0
   24.3370    4.1899   -7.4381 C   0  0  0  0  0  0  0  0  0  0  0  0
   24.2742    4.5123   -5.9947 C   0  0  0  0  0  0  0  0  0  0  0  0
   25.5686    4.2300   -8.0602 N   0  0  0  0  0  0  0  0  0  0  0  0
   25.4312    3.9305   -9.3322 C   0  0  0  0  0  0  0  0  0  0  0  0
   23.8442    3.5930   -9.8614 S   0  0  0  0  0  0  0  0  0  0  0  0
   21.4437    2.3893   -7.4736 C   0  0  0  0  0  0  0  0  0  0  0  0
   20.1210    2.1642   -7.1453 C   0  0  0  0  0  0  0  0  0  0  0  0
   14.5662   -0.4941   -7.4288 C   0  0  0  0  0  0  0  0  0  0  0  0
   13.5092   -0.6140   -6.3411 C   0  0  1  0  0  0  0  0  0  0  0  0
   12.3745   -1.3454   -6.8034 O   0  0  0  0  0  0  0  0  0  0  0  0
   14.2227   -1.3862   -5.2432 C   0  0  0  0  0  0  0  0  0  0  0  0
   17.0465   -6.8579   -5.7860 C   0  0  0  0  0  0  0  0  0  0  0  0
   18.2978   -6.0488   -5.6231 C   0  0  0  0  0  0  0  0  0  0  0  0
   18.0959   -3.7776   -4.0981 H   0  0  0  0  0  0  0  0  0  0  0  0
   15.2943   -2.9096   -3.6402 H   0  0  0  0  0  0  0  0  0  0  0  0
   16.4427   -2.7991   -0.0782 H   0  0  0  0  0  0  0  0  0  0  0  0
   17.1090   -3.9898   -1.1858 H   0  0  0  0  0  0  0  0  0  0  0  0
   15.3769   -3.6379   -1.2036 H   0  0  0  0  0  0  0  0  0  0  0  0
   18.2162   -1.2607   -0.9170 H   0  0  0  0  0  0  0  0  0  0  0  0
   18.1889   -0.6241   -2.5532 H   0  0  0  0  0  0  0  0  0  0  0  0
   18.7747   -2.2608   -2.2522 H   0  0  0  0  0  0  0  0  0  0  0  0
   15.7158   -0.1209   -2.5522 H   0  0  0  0  0  0  0  0  0  0  0  0
   15.7458   -0.5396   -0.8412 H   0  0  0  0  0  0  0  0  0  0  0  0
   14.5643   -1.2933   -1.9197 H   0  0  0  0  0  0  0  0  0  0  0  0
   16.6987   -0.8301   -7.2322 H   0  0  0  0  0  0  0  0  0  0  0  0
   17.7946    0.9418   -7.6725 H   0  0  0  0  0  0  0  0  0  0  0  0
   17.0537    3.5324   -7.5428 H   0  0  0  0  0  0  0  0  0  0  0  0
   17.5761    3.2618   -5.8734 H   0  0  0  0  0  0  0  0  0  0  0  0
   19.1114    6.1761   -8.3317 H   0  0  0  0  0  0  0  0  0  0  0  0
   21.2437    5.6069   -8.4723 H   0  0  0  0  0  0  0  0  0  0  0  0
   25.2506    4.8331   -5.6202 H   0  0  0  0  0  0  0  0  0  0  0  0
   23.9690    3.6381   -5.4163 H   0  0  0  0  0  0  0  0  0  0  0  0
   23.5607    5.3194   -5.8057 H   0  0  0  0  0  0  0  0  0  0  0  0
   26.2695    3.9013  -10.0134 H   0  0  0  0  0  0  0  0  0  0  0  0
   22.1462    1.5715   -7.3712 H   0  0  0  0  0  0  0  0  0  0  0  0
   19.8408    1.1850   -6.7718 H   0  0  0  0  0  0  0  0  0  0  0  0
   14.3741    0.3495   -8.1001 H   0  0  0  0  0  0  0  0  0  0  0  0
   14.5785   -1.4039   -8.0381 H   0  0  0  0  0  0  0  0  0  0  0  0
   13.1829    0.3686   -5.9825 H   0  0  0  0  0  0  0  0  0  0  0  0
   11.9216   -0.8095   -7.4805 H   0  0  0  0  0  0  0  0  0  0  0  0
   14.0221   -2.4603   -5.3039 H   0  0  0  0  0  0  0  0  0  0  0  0
   13.9241   -1.0436   -4.2486 H   0  0  0  0  0  0  0  0  0  0  0  0
   17.1366   -7.9355   -5.8352 H   0  0  0  0  0  0  0  0  0  0  0  0
   16.2438   -6.4507   -6.3790 H   0  0  0  0  0  0  0  0  0  0  0  0
   18.3565   -5.0968   -6.1359 H   0  0  0  0  0  0  0  0  0  0  0  0
   19.2404   -6.5782   -5.5640 H   0  0  0  0  0  0  0  0  0  0  0  0
  2  1  1  0  0  0  0
  2 36  1  0  0  0  0
  2  3  1  0  0  0  0
  2 37  1  0  0  0  0
  3  4  2  0  0  0  0
  3  5  1  0  0  0  0
  5 38  1  0  0  0  0
  6  5  1  0  0  0  0
  6 39  1  0  0  0  0
  6  7  1  0  0  0  0
  6 11  1  0  0  0  0
  7  8  1  0  0  0  0
  7  9  1  0  0  0  0
  7 10  1  0  0  0  0
  8 40  1  0  0  0  0
  8 41  1  0  0  0  0
  8 42  1  0  0  0  0
  9 43  1  0  0  0  0
  9 44  1  0  0  0  0
  9 45  1  0  0  0  0
 10 46  1  0  0  0  0
 10 47  1  0  0  0  0
 10 48  1  0  0  0  0
 11 12  2  0  0  0  0
 11 13  1  0  0  0  0
 13 35  1  0  0  0  0
 14 13  1  0  0  0  0
 14 32  1  0  0  0  0
 14 49  1  0  0  0  0
 14 15  1  0  0  0  0
 15 16  2  0  0  0  0
 15 17  1  0  0  0  0
 17 50  1  0  0  0  0
 17 18  1  0  0  0  0
 18 51  1  0  0  0  0
 18 52  1  0  0  0  0
 18 19  1  0  0  0  0
 19 20  2  0  0  0  0
 19 31  1  0  0  0  0
 20 21  1  0  0  0  0
 20 22  1  0  0  0  0
 21 53  1  0  0  0  0
 22 54  1  0  0  0  0
 22 23  2  0  0  0  0
 23 30  1  0  0  0  0
 23 24  1  0  0  0  0
 24 25  2  0  0  0  0
 24 29  1  0  0  0  0
 25 26  1  0  0  0  0
 25 27  1  0  0  0  0
 26 55  1  0  0  0  0
 26 56  1  0  0  0  0
 26 57  1  0  0  0  0
 27 28  2  0  0  0  0
 28 58  1  0  0  0  0
 28 29  1  0  0  0  0
 30 59  1  0  0  0  0
 30 31  2  0  0  0  0
 31 60  1  0  0  0  0
 33 32  1  0  0  0  0
 32 61  1  0  0  0  0
 32 62  1  0  0  0  0
 33 35  1  0  0  0  0
 33 63  1  0  0  0  0
 33 34  1  0  0  0  0
 34 64  1  0  0  0  0
 35 65  1  0  0  0  0
 35 66  1  0  0  0  0
 36 67  1  0  0  0  0
 36 68  1  0  0  0  0
 36 37  1  0  0  0  0
 37 69  1  0  0  0  0
 37 70  1  0  0  0  0
M  ZZC   1 f1
M  ZZC   2 c1
M  ZZC   3 c2
M  ZZC   4 o1
M  ZZC   5 n1
M  ZZC   6 c3
M  ZZC   7 c4
M  ZZC   8 c5
M  ZZC   9 c6
M  ZZC  10 c7
M  ZZC  11 c8
M  ZZC  12 o2
M  ZZC  13 n2
M  ZZC  14 c9
M  ZZC  15 c10
M  ZZC  16 o3
M  ZZC  17 n3
M  ZZC  18 c11
M  ZZC  19 c12
M  ZZC  20 c13
M  ZZC  21 o4
M  ZZC  22 c14
M  ZZC  23 c15
M  ZZC  24 c16
M  ZZC  25 c17
M  ZZC  26 c18
M  ZZC  27 n4
M  ZZC  28 c19
M  ZZC  29 s1
M  ZZC  30 c20
M  ZZC  31 c21
M  ZZC  32 c22
M  ZZC  33 c23
M  ZZC  34 o5
M  ZZC  35 c24
M  ZZC  36 c25
M  ZZC  37 c26
M  ZZC  38 h11
M  ZZC  39 h31
M  ZZC  40 h51
M  ZZC  41 h52
M  ZZC  42 h53
M  ZZC  43 h61
M  ZZC  44 h62
M  ZZC  45 h63
M  ZZC  46 h71
M  ZZC  47 h72
M  ZZC  48 h73
M  ZZC  49 h91
M  ZZC  50 h01
M  ZZC  51 h111
M  ZZC  52 h112
M  ZZC  53 h41
M  ZZC  54 h141
M  ZZC  55 h181
M  ZZC  56 h182
M  ZZC  57 h183
M  ZZC  58 h191
M  ZZC  59 h201
M  ZZC  60 h211
M  ZZC  61 h221
M  ZZC  62 h222
M  ZZC  63 h231
M  ZZC  64 h02
M  ZZC  65 h241
M  ZZC  66 h242
M  ZZC  67 h251
M  ZZC  68 h252
M  ZZC  69 h261
M  ZZC  70 h262
M  ZZM   1 11
M  ZZI   1 90
M  ZZM   2 22
M  ZZI   2 109
M  ZZM   3 3
M  ZZI   3 121
M  ZZM   4 7
M  ZZI   4 81
M  ZZM   5 10
M  ZZI   5 211
M  ZZM   6 1
M  ZZI   6 113
M  ZZM   7 1
M  ZZI   7 110
M  ZZM   8 1
M  ZZI   8 111
M  ZZM   9 1
M  ZZI   9 111
M  ZZM  10 1
M  ZZI  10 111
M  ZZM  11 3
M  ZZI  11 121
M  ZZM  12 7
M  ZZI  12 81
M  ZZM  13 10
M  ZZI  13 192
M  ZZM  14 1
M  ZZI  14 113
M  ZZM  15 3
M  ZZI  15 121
M  ZZM  16 7
M  ZZI  16 81
M  ZZM  17 10
M  ZZI  17 211
M  ZZM  18 1
M  ZZI  18 112
M  ZZM  19 37
M  ZZI  19 124
M  ZZM  20 37
M  ZZI  20 124
M  ZZM  21 6
M  ZZI  21 62
M  ZZM  22 37
M  ZZI  22 125
M  ZZM  23 37
M  ZZI  23 124
M  ZZM  24 63
M  ZZI  24 104
M  ZZM  25 64
M  ZZI  25 105
M  ZZM  26 1
M  ZZI  26 111
M  ZZM  27 66
M  ZZI  27 222
M  ZZM  28 63
M  ZZI  28 104
M  ZZM  29 44
M  ZZI  29 248
M  ZZM  30 37
M  ZZI  30 125
M  ZZM  31 37
M  ZZI  31 125
M  ZZM  32 1
M  ZZI  32 112
M  ZZM  33 1
M  ZZI  33 113
M  ZZM  34 6
M  ZZI  34 60
M  ZZM  35 1
M  ZZI  35 112
M  ZZM  36 22
M  ZZI  36 109
M  ZZM  37 22
M  ZZI  37 109
M  ZZM  38 28
M  ZZI  38 11
M  ZZM  39 5
M  ZZI  39 1
M  ZZM  40 5
M  ZZI  40 1
M  ZZM  41 5
M  ZZI  41 1
M  ZZM  42 5
M  ZZI  42 1
M  ZZM  43 5
M  ZZI  43 1
M  ZZM  44 5
M  ZZI  44 1
M  ZZM  45 5
M  ZZI  45 1
M  ZZM  46 5
M  ZZI  46 1
M  ZZM  47 5
M  ZZI  47 1
M  ZZM  48 5
M  ZZI  48 1
M  ZZM  49 5
M  ZZI  49 1
M  ZZM  50 28
M  ZZI  50 11
M  ZZM  51 5
M  ZZI  51 1
M  ZZM  52 5
M  ZZI  52 1
M  ZZM  53 29
M  ZZI  53 27
M  ZZM  54 5
M  ZZI  54 1
M  ZZM  55 5
M  ZZI  55 1
M  ZZM  56 5
M  ZZI  56 1
M  ZZM  57 5
M  ZZI  57 1
M  ZZM  58 5
M  ZZI  58 1
M  ZZM  59 5
M  ZZI  59 1
M  ZZM  60 5
M  ZZI  60 1
M  ZZM  61 5
M  ZZI  61 1
M  ZZM  62 5
M  ZZI  62 1
M  ZZM  63 5
M  ZZI  63 1
M  ZZM  64 21
M  ZZI  64 20
M  ZZM  65 5
M  ZZI  65 1
M  ZZM  66 5
M  ZZI  66 1
M  ZZM  67 5
M  ZZI  67 1
M  ZZM  68 5
M  ZZI  68 1
M  ZZM  69 5
M  ZZI  69 1
M  ZZM  70 5
M  ZZI  70 1
M  END
> <IX>
1

> <NAME>
VHL_5EU1_12.pdb

> <Score>
-13.533534

> <Natom>
70

> <Nflex>
9

> <Hbond>
-5.001105

> <Hphob>
-6.498102

> <VwInt>
-32.930087

> <Dsolv>
18.219557

> <SolEl>
20.840535

> <Eintl>
5.972757

> <RecConf>
ND

> <projPath>
VHL_maps/

> <NAME_>
VHL_5EU1_12.pdb

$$$$
