VHL_5G0J_11.pdb
  MOLSOFT 04032206403D

 65 67  0  0  1  0  0  0  0  0999 V2000
   18.1097   -6.6542   -5.1137 C   0  0  0  0  0  0  0  0  0  0  0  0
   16.8976   -5.7770   -4.9589 C   0  0  0  0  0  0  0  0  0  0  0  0
   15.8117   -6.1317   -5.3837 O   0  0  0  0  0  0  0  0  0  0  0  0
   17.1430   -4.6001   -4.2791 N   0  0  0  0  0  0  0  0  0  0  0  0
   16.1355   -3.5605   -4.0113 C   0  0  1  0  0  0  0  0  0  0  0  0
   15.8988   -3.3618   -2.4846 C   0  0  0  0  0  0  0  0  0  0  0  0
   15.4345   -4.6988   -1.8948 C   0  0  0  0  0  0  0  0  0  0  0  0
   17.1658   -2.8979   -1.7516 C   0  0  0  0  0  0  0  0  0  0  0  0
   14.7947   -2.3409   -2.1857 C   0  0  0  0  0  0  0  0  0  0  0  0
   16.6275   -2.3227   -4.7912 C   0  0  0  0  0  0  0  0  0  0  0  0
   17.8220   -2.0535   -4.8481 O   0  0  0  0  0  0  0  0  0  0  0  0
   15.6735   -1.5534   -5.4653 N   0  0  0  0  0  0  0  0  0  0  0  0
   16.0646   -0.6422   -6.5309 C   0  0  2  0  0  0  0  0  0  0  0  0
   16.4451    0.7506   -6.0214 C   0  0  0  0  0  0  0  0  0  0  0  0
   15.9186    1.2718   -5.0476 O   0  0  0  0  0  0  0  0  0  0  0  0
   17.3823    1.3828   -6.8172 N   0  0  0  0  0  0  0  0  0  0  0  0
   17.8330    2.7381   -6.5469 C   0  0  0  0  0  0  0  0  0  0  0  0
   19.2424    3.0185   -7.0110 C   0  0  0  0  0  0  0  0  0  0  0  0
   20.1856    2.0056   -7.1281 C   0  0  0  0  0  0  0  0  0  0  0  0
   21.4855    2.2816   -7.4977 C   0  0  0  0  0  0  0  0  0  0  0  0
   21.8978    3.5790   -7.7552 C   0  0  0  0  0  0  0  0  0  0  0  0
   23.2826    3.8398   -8.1136 C   0  0  0  0  0  0  0  0  0  0  0  0
   24.3502    4.2589   -7.3327 C   0  0  0  0  0  0  0  0  0  0  0  0
   24.3191    4.5896   -5.8900 C   0  0  0  0  0  0  0  0  0  0  0  0
   25.5600    4.3397   -7.9929 N   0  0  0  0  0  0  0  0  0  0  0  0
   25.3985    4.0078   -9.2541 C   0  0  0  0  0  0  0  0  0  0  0  0
   23.8130    3.5912   -9.7285 S   0  0  0  0  0  0  0  0  0  0  0  0
   20.9658    4.6024   -7.6369 C   0  0  0  0  0  0  0  0  0  0  0  0
   19.6566    4.3236   -7.2689 C   0  0  0  0  0  0  0  0  0  0  0  0
   14.8271   -0.5727   -7.4114 C   0  0  0  0  0  0  0  0  0  0  0  0
   13.6751   -0.6937   -6.4250 C   0  0  1  0  0  0  0  0  0  0  0  0
   12.5334   -1.3109   -7.0136 O   0  0  0  0  0  0  0  0  0  0  0  0
   14.2274   -1.5822   -5.3233 C   0  0  0  0  0  0  0  0  0  0  0  0
   19.0197   -6.0566   -5.2230 H   0  0  0  0  0  0  0  0  0  0  0  0
   17.9973   -7.2754   -6.0074 H   0  0  0  0  0  0  0  0  0  0  0  0
   18.1952   -7.3011   -4.2374 H   0  0  0  0  0  0  0  0  0  0  0  0
   18.1044   -4.3946   -4.0318 H   0  0  0  0  0  0  0  0  0  0  0  0
   15.2019   -3.9069   -4.4551 H   0  0  0  0  0  0  0  0  0  0  0  0
   15.1796   -4.5928   -0.8375 H   0  0  0  0  0  0  0  0  0  0  0  0
   16.2055   -5.4669   -1.9773 H   0  0  0  0  0  0  0  0  0  0  0  0
   14.5448   -5.0776   -2.4079 H   0  0  0  0  0  0  0  0  0  0  0  0
   16.9917   -2.8036   -0.6748 H   0  0  0  0  0  0  0  0  0  0  0  0
   17.5103   -1.9233   -2.1108 H   0  0  0  0  0  0  0  0  0  0  0  0
   17.9858   -3.6026   -1.8775 H   0  0  0  0  0  0  0  0  0  0  0  0
   15.0767   -1.3344   -2.5071 H   0  0  0  0  0  0  0  0  0  0  0  0
   14.5910   -2.2764   -1.1117 H   0  0  0  0  0  0  0  0  0  0  0  0
   13.8524   -2.6191   -2.6674 H   0  0  0  0  0  0  0  0  0  0  0  0
   16.9126   -1.0645   -7.0799 H   0  0  0  0  0  0  0  0  0  0  0  0
   17.7771    0.8833   -7.6092 H   0  0  0  0  0  0  0  0  0  0  0  0
   17.1311    3.4021   -7.0633 H   0  0  0  0  0  0  0  0  0  0  0  0
   17.7583    2.9372   -5.4725 H   0  0  0  0  0  0  0  0  0  0  0  0
   19.9170    0.9749   -6.9291 H   0  0  0  0  0  0  0  0  0  0  0  0
   22.1842    1.4589   -7.5850 H   0  0  0  0  0  0  0  0  0  0  0  0
   25.2808    4.9908   -5.5574 H   0  0  0  0  0  0  0  0  0  0  0  0
   24.1083    3.6975   -5.2955 H   0  0  0  0  0  0  0  0  0  0  0  0
   23.5518    5.3389   -5.6756 H   0  0  0  0  0  0  0  0  0  0  0  0
   26.2170    3.9998   -9.9595 H   0  0  0  0  0  0  0  0  0  0  0  0
   21.2559    5.6312   -7.8292 H   0  0  0  0  0  0  0  0  0  0  0  0
   18.9528    5.1458   -7.1764 H   0  0  0  0  0  0  0  0  0  0  0  0
   14.7606    0.3420   -8.0099 H   0  0  0  0  0  0  0  0  0  0  0  0
   14.8159   -1.4185   -8.1074 H   0  0  0  0  0  0  0  0  0  0  0  0
   13.3820    0.2847   -6.0272 H   0  0  0  0  0  0  0  0  0  0  0  0
   12.1848   -0.7158   -7.7019 H   0  0  0  0  0  0  0  0  0  0  0  0
   13.8458   -2.6038   -5.3580 H   0  0  0  0  0  0  0  0  0  0  0  0
   13.9561   -1.1560   -4.3575 H   0  0  0  0  0  0  0  0  0  0  0  0
  1 34  1  0  0  0  0
  1 35  1  0  0  0  0
  1 36  1  0  0  0  0
  1  2  1  0  0  0  0
  2  3  2  0  0  0  0
  2  4  1  0  0  0  0
  4 37  1  0  0  0  0
  5  4  1  0  0  0  0
  5 38  1  0  0  0  0
  5  6  1  0  0  0  0
  5 10  1  0  0  0  0
  6  7  1  0  0  0  0
  6  8  1  0  0  0  0
  6  9  1  0  0  0  0
  7 39  1  0  0  0  0
  7 40  1  0  0  0  0
  7 41  1  0  0  0  0
  8 42  1  0  0  0  0
  8 43  1  0  0  0  0
  8 44  1  0  0  0  0
  9 45  1  0  0  0  0
  9 46  1  0  0  0  0
  9 47  1  0  0  0  0
 10 11  2  0  0  0  0
 10 12  1  0  0  0  0
 12 33  1  0  0  0  0
 13 12  1  0  0  0  0
 13 30  1  0  0  0  0
 13 48  1  0  0  0  0
 13 14  1  0  0  0  0
 14 15  2  0  0  0  0
 14 16  1  0  0  0  0
 16 49  1  0  0  0  0
 16 17  1  0  0  0  0
 17 50  1  0  0  0  0
 17 51  1  0  0  0  0
 17 18  1  0  0  0  0
 18 19  1  0  0  0  0
 18 29  2  0  0  0  0
 19 52  1  0  0  0  0
 19 20  2  0  0  0  0
 20 53  1  0  0  0  0
 20 21  1  0  0  0  0
 21 28  2  0  0  0  0
 21 22  1  0  0  0  0
 22 23  2  0  0  0  0
 22 27  1  0  0  0  0
 23 24  1  0  0  0  0
 23 25  1  0  0  0  0
 24 54  1  0  0  0  0
 24 55  1  0  0  0  0
 24 56  1  0  0  0  0
 25 26  2  0  0  0  0
 26 57  1  0  0  0  0
 26 27  1  0  0  0  0
 28 58  1  0  0  0  0
 28 29  1  0  0  0  0
 29 59  1  0  0  0  0
 31 30  1  0  0  0  0
 30 60  1  0  0  0  0
 30 61  1  0  0  0  0
 31 33  1  0  0  0  0
 31 62  1  0  0  0  0
 31 32  1  0  0  0  0
 32 63  1  0  0  0  0
 33 64  1  0  0  0  0
 33 65  1  0  0  0  0
M  ZZC   1 c1
M  ZZC   2 c2
M  ZZC   3 o1
M  ZZC   4 n1
M  ZZC   5 c3
M  ZZC   6 c4
M  ZZC   7 c5
M  ZZC   8 c6
M  ZZC   9 c7
M  ZZC  10 c8
M  ZZC  11 o2
M  ZZC  12 n2
M  ZZC  13 c9
M  ZZC  14 c10
M  ZZC  15 o3
M  ZZC  16 n3
M  ZZC  17 c11
M  ZZC  18 c12
M  ZZC  19 c13
M  ZZC  20 c14
M  ZZC  21 c15
M  ZZC  22 c16
M  ZZC  23 c17
M  ZZC  24 c18
M  ZZC  25 n4
M  ZZC  26 c19
M  ZZC  27 s1
M  ZZC  28 c20
M  ZZC  29 c21
M  ZZC  30 c22
M  ZZC  31 c23
M  ZZC  32 o4
M  ZZC  33 c24
M  ZZC  34 h11
M  ZZC  35 h12
M  ZZC  36 h13
M  ZZC  37 h01
M  ZZC  38 h31
M  ZZC  39 h51
M  ZZC  40 h52
M  ZZC  41 h53
M  ZZC  42 h61
M  ZZC  43 h62
M  ZZC  44 h63
M  ZZC  45 h71
M  ZZC  46 h72
M  ZZC  47 h73
M  ZZC  48 h91
M  ZZC  49 h02
M  ZZC  50 h111
M  ZZC  51 h112
M  ZZC  52 h131
M  ZZC  53 h141
M  ZZC  54 h181
M  ZZC  55 h182
M  ZZC  56 h183
M  ZZC  57 h191
M  ZZC  58 h201
M  ZZC  59 h211
M  ZZC  60 h221
M  ZZC  61 h222
M  ZZC  62 h231
M  ZZC  63 h41
M  ZZC  64 h241
M  ZZC  65 h242
M  ZZM   1 1
M  ZZI   1 111
M  ZZM   2 3
M  ZZI   2 121
M  ZZM   3 7
M  ZZI   3 81
M  ZZM   4 10
M  ZZI   4 211
M  ZZM   5 1
M  ZZI   5 113
M  ZZM   6 1
M  ZZI   6 110
M  ZZM   7 1
M  ZZI   7 111
M  ZZM   8 1
M  ZZI   8 111
M  ZZM   9 1
M  ZZI   9 111
M  ZZM  10 3
M  ZZI  10 121
M  ZZM  11 7
M  ZZI  11 81
M  ZZM  12 10
M  ZZI  12 192
M  ZZM  13 1
M  ZZI  13 113
M  ZZM  14 3
M  ZZI  14 121
M  ZZM  15 7
M  ZZI  15 81
M  ZZM  16 10
M  ZZI  16 211
M  ZZM  17 1
M  ZZI  17 112
M  ZZM  18 37
M  ZZI  18 124
M  ZZM  19 37
M  ZZI  19 125
M  ZZM  20 37
M  ZZI  20 125
M  ZZM  21 37
M  ZZI  21 124
M  ZZM  22 63
M  ZZI  22 104
M  ZZM  23 64
M  ZZI  23 105
M  ZZM  24 1
M  ZZI  24 111
M  ZZM  25 66
M  ZZI  25 222
M  ZZM  26 63
M  ZZI  26 104
M  ZZM  27 44
M  ZZI  27 248
M  ZZM  28 37
M  ZZI  28 125
M  ZZM  29 37
M  ZZI  29 125
M  ZZM  30 1
M  ZZI  30 112
M  ZZM  31 1
M  ZZI  31 113
M  ZZM  32 6
M  ZZI  32 60
M  ZZM  33 1
M  ZZI  33 112
M  ZZM  34 5
M  ZZI  34 1
M  ZZM  35 5
M  ZZI  35 1
M  ZZM  36 5
M  ZZI  36 1
M  ZZM  37 28
M  ZZI  37 11
M  ZZM  38 5
M  ZZI  38 1
M  ZZM  39 5
M  ZZI  39 1
M  ZZM  40 5
M  ZZI  40 1
M  ZZM  41 5
M  ZZI  41 1
M  ZZM  42 5
M  ZZI  42 1
M  ZZM  43 5
M  ZZI  43 1
M  ZZM  44 5
M  ZZI  44 1
M  ZZM  45 5
M  ZZI  45 1
M  ZZM  46 5
M  ZZI  46 1
M  ZZM  47 5
M  ZZI  47 1
M  ZZM  48 5
M  ZZI  48 1
M  ZZM  49 28
M  ZZI  49 11
M  ZZM  50 5
M  ZZI  50 1
M  ZZM  51 5
M  ZZI  51 1
M  ZZM  52 5
M  ZZI  52 1
M  ZZM  53 5
M  ZZI  53 1
M  ZZM  54 5
M  ZZI  54 1
M  ZZM  55 5
M  ZZI  55 1
M  ZZM  56 5
M  ZZI  56 1
M  ZZM  57 5
M  ZZI  57 1
M  ZZM  58 5
M  ZZI  58 1
M  ZZM  59 5
M  ZZI  59 1
M  ZZM  60 5
M  ZZI  60 1
M  ZZM  61 5
M  ZZI  61 1
M  ZZM  62 5
M  ZZI  62 1
M  ZZM  63 21
M  ZZI  63 20
M  ZZM  64 5
M  ZZI  64 1
M  ZZM  65 5
M  ZZI  65 1
M  END
> <IX>
1

> <NAME>
VHL_5G0J_11.pdb

> <Score>
-11.721795

> <Natom>
65

> <Nflex>
8

> <Hbond>
-4.96997

> <Hphob>
-6.477028

> <VwInt>
-28.107697

> <Dsolv>
16.880304

> <SolEl>
17.022328

> <Eintl>
7.674287

> <RecConf>
ND

> <projPath>
VHL_maps/

> <NAME_>
VHL_5G0J_11.pdb

$$$$
