VHL_5TRF_15.pdb
  MOLSOFT 04032206423D

 65 67  0  0  1  0  0  0  0  0999 V2000
   18.1302   -6.6902   -5.1499 C   0  0  0  0  0  0  0  0  0  0  0  0
   16.9157   -5.8166   -4.9894 C   0  0  0  0  0  0  0  0  0  0  0  0
   15.8294   -6.1738   -5.4112 O   0  0  0  0  0  0  0  0  0  0  0  0
   17.1609   -4.6390   -4.3109 N   0  0  0  0  0  0  0  0  0  0  0  0
   16.1553   -3.5976   -4.0438 C   0  0  1  0  0  0  0  0  0  0  0  0
   15.8842   -3.4317   -2.5193 C   0  0  0  0  0  0  0  0  0  0  0  0
   15.4057   -4.7814   -1.9704 C   0  0  0  0  0  0  0  0  0  0  0  0
   14.7739   -2.4169   -2.2231 C   0  0  0  0  0  0  0  0  0  0  0  0
   17.1340   -2.9825   -1.7491 C   0  0  0  0  0  0  0  0  0  0  0  0
   16.6773   -2.3504   -4.7878 C   0  0  0  0  0  0  0  0  0  0  0  0
   17.8758   -2.0971   -4.8198 O   0  0  0  0  0  0  0  0  0  0  0  0
   15.7489   -1.5506   -5.4604 N   0  0  0  0  0  0  0  0  0  0  0  0
   16.1780   -0.6148   -6.4896 C   0  0  2  0  0  0  0  0  0  0  0  0
   16.5808    0.7507   -5.9232 C   0  0  0  0  0  0  0  0  0  0  0  0
   16.0294    1.2555   -4.9546 O   0  0  0  0  0  0  0  0  0  0  0  0
   17.5688    1.3812   -6.6596 N   0  0  0  0  0  0  0  0  0  0  0  0
   18.0210    2.7277   -6.3439 C   0  0  0  0  0  0  0  0  0  0  0  0
   19.4784    3.0190   -6.6298 C   0  0  0  0  0  0  0  0  0  0  0  0
   19.9868    4.2808   -6.3302 C   0  0  0  0  0  0  0  0  0  0  0  0
   21.3237    4.5917   -6.5297 C   0  0  0  0  0  0  0  0  0  0  0  0
   22.2016    3.6478   -7.0494 C   0  0  0  0  0  0  0  0  0  0  0  0
   23.6250    3.9218   -7.2118 C   0  0  0  0  0  0  0  0  0  0  0  0
   24.4424    3.8826   -8.3357 C   0  0  0  0  0  0  0  0  0  0  0  0
   24.0371    3.6110   -9.7324 C   0  0  0  0  0  0  0  0  0  0  0  0
   25.7805    4.1206   -8.0957 N   0  0  0  0  0  0  0  0  0  0  0  0
   25.9674    4.3588   -6.8178 C   0  0  0  0  0  0  0  0  0  0  0  0
   24.5744    4.3202   -5.8319 S   0  0  0  0  0  0  0  0  0  0  0  0
   21.6898    2.4019   -7.3789 C   0  0  0  0  0  0  0  0  0  0  0  0
   20.3611    2.0873   -7.1666 C   0  0  0  0  0  0  0  0  0  0  0  0
   14.9603   -0.4952   -7.3941 C   0  0  0  0  0  0  0  0  0  0  0  0
   13.7835   -0.6391   -6.4394 C   0  0  1  0  0  0  0  0  0  0  0  0
   12.6513   -1.2316   -7.0715 O   0  0  0  0  0  0  0  0  0  0  0  0
   14.3005   -1.5616   -5.3490 C   0  0  0  0  0  0  0  0  0  0  0  0
   19.0434   -6.0913   -5.2168 H   0  0  0  0  0  0  0  0  0  0  0  0
   18.0361   -7.2786   -6.0675 H   0  0  0  0  0  0  0  0  0  0  0  0
   18.1964   -7.3674   -4.2950 H   0  0  0  0  0  0  0  0  0  0  0  0
   18.1214   -4.4346   -4.0599 H   0  0  0  0  0  0  0  0  0  0  0  0
   15.2293   -3.9260   -4.5148 H   0  0  0  0  0  0  0  0  0  0  0  0
   15.1345   -4.7018   -0.9153 H   0  0  0  0  0  0  0  0  0  0  0  0
   16.1742   -5.5515   -2.0595 H   0  0  0  0  0  0  0  0  0  0  0  0
   14.5230   -5.1437   -2.5071 H   0  0  0  0  0  0  0  0  0  0  0  0
   15.0662   -1.4030   -2.5095 H   0  0  0  0  0  0  0  0  0  0  0  0
   14.5415   -2.3807   -1.1536 H   0  0  0  0  0  0  0  0  0  0  0  0
   13.8449   -2.6798   -2.7380 H   0  0  0  0  0  0  0  0  0  0  0  0
   16.9389   -2.9185   -0.6737 H   0  0  0  0  0  0  0  0  0  0  0  0
   17.4801   -1.9968   -2.0752 H   0  0  0  0  0  0  0  0  0  0  0  0
   17.9601   -3.6785   -1.8797 H   0  0  0  0  0  0  0  0  0  0  0  0
   17.0279   -1.0366   -7.0350 H   0  0  0  0  0  0  0  0  0  0  0  0
   17.9532    0.9060   -7.4696 H   0  0  0  0  0  0  0  0  0  0  0  0
   17.3973    3.4057   -6.9366 H   0  0  0  0  0  0  0  0  0  0  0  0
   17.8188    2.9256   -5.2858 H   0  0  0  0  0  0  0  0  0  0  0  0
   19.3334    5.0419   -5.9132 H   0  0  0  0  0  0  0  0  0  0  0  0
   21.6773    5.5839   -6.2650 H   0  0  0  0  0  0  0  0  0  0  0  0
   23.9107    2.5383   -9.8925 H   0  0  0  0  0  0  0  0  0  0  0  0
   24.7953    3.9651  -10.4365 H   0  0  0  0  0  0  0  0  0  0  0  0
   23.0991    4.1172   -9.9754 H   0  0  0  0  0  0  0  0  0  0  0  0
   26.9449    4.5681   -6.4070 H   0  0  0  0  0  0  0  0  0  0  0  0
   22.3370    1.6357   -7.7867 H   0  0  0  0  0  0  0  0  0  0  0  0
   20.0387    1.0834   -7.4105 H   0  0  0  0  0  0  0  0  0  0  0  0
   14.9196    0.4441   -7.9556 H   0  0  0  0  0  0  0  0  0  0  0  0
   14.9534   -1.3103   -8.1264 H   0  0  0  0  0  0  0  0  0  0  0  0
   13.4860    0.3295   -6.0217 H   0  0  0  0  0  0  0  0  0  0  0  0
   12.3464   -0.6321   -7.7760 H   0  0  0  0  0  0  0  0  0  0  0  0
   13.9061   -2.5765   -5.4145 H   0  0  0  0  0  0  0  0  0  0  0  0
   14.0155   -1.1542   -4.3791 H   0  0  0  0  0  0  0  0  0  0  0  0
  1 34  1  0  0  0  0
  1 35  1  0  0  0  0
  1 36  1  0  0  0  0
  1  2  1  0  0  0  0
  2  3  2  0  0  0  0
  2  4  1  0  0  0  0
  4 37  1  0  0  0  0
  5  4  1  0  0  0  0
  5 38  1  0  0  0  0
  5  6  1  0  0  0  0
  5 10  1  0  0  0  0
  6  7  1  0  0  0  0
  6  8  1  0  0  0  0
  6  9  1  0  0  0  0
  7 39  1  0  0  0  0
  7 40  1  0  0  0  0
  7 41  1  0  0  0  0
  8 42  1  0  0  0  0
  8 43  1  0  0  0  0
  8 44  1  0  0  0  0
  9 45  1  0  0  0  0
  9 46  1  0  0  0  0
  9 47  1  0  0  0  0
 10 11  2  0  0  0  0
 10 12  1  0  0  0  0
 12 33  1  0  0  0  0
 13 12  1  0  0  0  0
 13 30  1  0  0  0  0
 13 48  1  0  0  0  0
 13 14  1  0  0  0  0
 14 15  2  0  0  0  0
 14 16  1  0  0  0  0
 16 49  1  0  0  0  0
 16 17  1  0  0  0  0
 17 50  1  0  0  0  0
 17 51  1  0  0  0  0
 17 18  1  0  0  0  0
 18 19  1  0  0  0  0
 18 29  2  0  0  0  0
 19 52  1  0  0  0  0
 19 20  2  0  0  0  0
 20 53  1  0  0  0  0
 20 21  1  0  0  0  0
 21 28  2  0  0  0  0
 21 22  1  0  0  0  0
 22 23  2  0  0  0  0
 22 27  1  0  0  0  0
 23 24  1  0  0  0  0
 23 25  1  0  0  0  0
 24 54  1  0  0  0  0
 24 55  1  0  0  0  0
 24 56  1  0  0  0  0
 25 26  2  0  0  0  0
 26 57  1  0  0  0  0
 26 27  1  0  0  0  0
 28 58  1  0  0  0  0
 28 29  1  0  0  0  0
 29 59  1  0  0  0  0
 31 30  1  0  0  0  0
 30 60  1  0  0  0  0
 30 61  1  0  0  0  0
 31 33  1  0  0  0  0
 31 62  1  0  0  0  0
 31 32  1  0  0  0  0
 32 63  1  0  0  0  0
 33 64  1  0  0  0  0
 33 65  1  0  0  0  0
M  ZZC   1 c1
M  ZZC   2 c2
M  ZZC   3 o1
M  ZZC   4 n1
M  ZZC   5 c3
M  ZZC   6 c4
M  ZZC   7 c5
M  ZZC   8 c6
M  ZZC   9 c7
M  ZZC  10 c8
M  ZZC  11 o2
M  ZZC  12 n2
M  ZZC  13 c9
M  ZZC  14 c10
M  ZZC  15 o3
M  ZZC  16 n3
M  ZZC  17 c11
M  ZZC  18 c12
M  ZZC  19 c13
M  ZZC  20 c14
M  ZZC  21 c15
M  ZZC  22 c16
M  ZZC  23 c17
M  ZZC  24 c18
M  ZZC  25 n4
M  ZZC  26 c19
M  ZZC  27 s1
M  ZZC  28 c20
M  ZZC  29 c21
M  ZZC  30 c22
M  ZZC  31 c23
M  ZZC  32 o4
M  ZZC  33 c24
M  ZZC  34 h11
M  ZZC  35 h12
M  ZZC  36 h13
M  ZZC  37 h01
M  ZZC  38 h31
M  ZZC  39 h51
M  ZZC  40 h52
M  ZZC  41 h53
M  ZZC  42 h61
M  ZZC  43 h62
M  ZZC  44 h63
M  ZZC  45 h71
M  ZZC  46 h72
M  ZZC  47 h73
M  ZZC  48 h91
M  ZZC  49 h02
M  ZZC  50 h111
M  ZZC  51 h112
M  ZZC  52 h131
M  ZZC  53 h141
M  ZZC  54 h181
M  ZZC  55 h182
M  ZZC  56 h183
M  ZZC  57 h191
M  ZZC  58 h201
M  ZZC  59 h211
M  ZZC  60 h221
M  ZZC  61 h222
M  ZZC  62 h231
M  ZZC  63 h41
M  ZZC  64 h241
M  ZZC  65 h242
M  ZZM   1 1
M  ZZI   1 111
M  ZZM   2 3
M  ZZI   2 121
M  ZZM   3 7
M  ZZI   3 81
M  ZZM   4 10
M  ZZI   4 211
M  ZZM   5 1
M  ZZI   5 113
M  ZZM   6 1
M  ZZI   6 110
M  ZZM   7 1
M  ZZI   7 111
M  ZZM   8 1
M  ZZI   8 111
M  ZZM   9 1
M  ZZI   9 111
M  ZZM  10 3
M  ZZI  10 121
M  ZZM  11 7
M  ZZI  11 81
M  ZZM  12 10
M  ZZI  12 192
M  ZZM  13 1
M  ZZI  13 113
M  ZZM  14 3
M  ZZI  14 121
M  ZZM  15 7
M  ZZI  15 81
M  ZZM  16 10
M  ZZI  16 211
M  ZZM  17 1
M  ZZI  17 112
M  ZZM  18 37
M  ZZI  18 124
M  ZZM  19 37
M  ZZI  19 125
M  ZZM  20 37
M  ZZI  20 125
M  ZZM  21 37
M  ZZI  21 124
M  ZZM  22 63
M  ZZI  22 104
M  ZZM  23 64
M  ZZI  23 105
M  ZZM  24 1
M  ZZI  24 111
M  ZZM  25 66
M  ZZI  25 222
M  ZZM  26 63
M  ZZI  26 104
M  ZZM  27 44
M  ZZI  27 248
M  ZZM  28 37
M  ZZI  28 125
M  ZZM  29 37
M  ZZI  29 125
M  ZZM  30 1
M  ZZI  30 112
M  ZZM  31 1
M  ZZI  31 113
M  ZZM  32 6
M  ZZI  32 60
M  ZZM  33 1
M  ZZI  33 112
M  ZZM  34 5
M  ZZI  34 1
M  ZZM  35 5
M  ZZI  35 1
M  ZZM  36 5
M  ZZI  36 1
M  ZZM  37 28
M  ZZI  37 11
M  ZZM  38 5
M  ZZI  38 1
M  ZZM  39 5
M  ZZI  39 1
M  ZZM  40 5
M  ZZI  40 1
M  ZZM  41 5
M  ZZI  41 1
M  ZZM  42 5
M  ZZI  42 1
M  ZZM  43 5
M  ZZI  43 1
M  ZZM  44 5
M  ZZI  44 1
M  ZZM  45 5
M  ZZI  45 1
M  ZZM  46 5
M  ZZI  46 1
M  ZZM  47 5
M  ZZI  47 1
M  ZZM  48 5
M  ZZI  48 1
M  ZZM  49 28
M  ZZI  49 11
M  ZZM  50 5
M  ZZI  50 1
M  ZZM  51 5
M  ZZI  51 1
M  ZZM  52 5
M  ZZI  52 1
M  ZZM  53 5
M  ZZI  53 1
M  ZZM  54 5
M  ZZI  54 1
M  ZZM  55 5
M  ZZI  55 1
M  ZZM  56 5
M  ZZI  56 1
M  ZZM  57 5
M  ZZI  57 1
M  ZZM  58 5
M  ZZI  58 1
M  ZZM  59 5
M  ZZI  59 1
M  ZZM  60 5
M  ZZI  60 1
M  ZZM  61 5
M  ZZI  61 1
M  ZZM  62 5
M  ZZI  62 1
M  ZZM  63 21
M  ZZI  63 20
M  ZZM  64 5
M  ZZI  64 1
M  ZZM  65 5
M  ZZI  65 1
M  END
> <IX>
1

> <NAME>
VHL_5TRF_15.pdb

> <Score>
-11.25027

> <Natom>
65

> <Nflex>
8

> <Hbond>
-4.964592

> <Hphob>
-6.410858

> <VwInt>
-28.181592

> <Dsolv>
16.891919

> <SolEl>
16.760445

> <Eintl>
8.7603

> <RecConf>
ND

> <projPath>
VHL_maps/

> <NAME_>
VHL_5TRF_15.pdb

$$$$
