VHL_5T8E_32.pdb
  MOLSOFT 04032206423D

 65 67  0  0  1  0  0  0  0  0999 V2000
   18.1190   -6.6614   -5.1245 C   0  0  0  0  0  0  0  0  0  0  0  0
   16.9041   -5.7878   -4.9700 C   0  0  0  0  0  0  0  0  0  0  0  0
   15.8185   -6.1473   -5.3919 O   0  0  0  0  0  0  0  0  0  0  0  0
   17.1467   -4.6083   -4.2938 N   0  0  0  0  0  0  0  0  0  0  0  0
   16.1358   -3.5728   -4.0227 C   0  0  1  0  0  0  0  0  0  0  0  0
   15.8912   -3.3876   -2.4958 C   0  0  0  0  0  0  0  0  0  0  0  0
   17.1537   -2.9284   -1.7523 C   0  0  0  0  0  0  0  0  0  0  0  0
   14.7849   -2.3702   -2.1933 C   0  0  0  0  0  0  0  0  0  0  0  0
   15.4242   -4.7305   -1.9213 C   0  0  0  0  0  0  0  0  0  0  0  0
   16.6296   -2.3289   -4.7914 C   0  0  0  0  0  0  0  0  0  0  0  0
   17.8242   -2.0590   -4.8429 O   0  0  0  0  0  0  0  0  0  0  0  0
   15.6775   -1.5559   -5.4634 N   0  0  0  0  0  0  0  0  0  0  0  0
   16.0711   -0.6436   -6.5269 C   0  0  2  0  0  0  0  0  0  0  0  0
   16.4537    0.7486   -6.0173 C   0  0  0  0  0  0  0  0  0  0  0  0
   15.9364    1.2654   -5.0363 O   0  0  0  0  0  0  0  0  0  0  0  0
   17.3782    1.3866   -6.8235 N   0  0  0  0  0  0  0  0  0  0  0  0
   17.8260    2.7438   -6.5583 C   0  0  0  0  0  0  0  0  0  0  0  0
   19.2381    3.0225   -7.0154 C   0  0  0  0  0  0  0  0  0  0  0  0
   20.1811    2.0088   -7.1276 C   0  0  0  0  0  0  0  0  0  0  0  0
   21.4821    2.2835   -7.4948 C   0  0  0  0  0  0  0  0  0  0  0  0
   21.8953    3.5800   -7.7553 C   0  0  0  0  0  0  0  0  0  0  0  0
   23.2803    3.8396   -8.1137 C   0  0  0  0  0  0  0  0  0  0  0  0
   24.3494    4.2537   -7.3322 C   0  0  0  0  0  0  0  0  0  0  0  0
   24.3194    4.5831   -5.8892 C   0  0  0  0  0  0  0  0  0  0  0  0
   25.5591    4.3331   -7.9928 N   0  0  0  0  0  0  0  0  0  0  0  0
   25.3962    4.0043   -9.2546 C   0  0  0  0  0  0  0  0  0  0  0  0
   23.8094    3.5934   -9.7295 S   0  0  0  0  0  0  0  0  0  0  0  0
   20.9640    4.6044   -7.6395 C   0  0  0  0  0  0  0  0  0  0  0  0
   19.6538    4.3270   -7.2738 C   0  0  0  0  0  0  0  0  0  0  0  0
   14.8357   -0.5727   -7.4106 C   0  0  0  0  0  0  0  0  0  0  0  0
   13.6823   -0.6922   -6.4256 C   0  0  1  0  0  0  0  0  0  0  0  0
   12.5407   -1.3073   -7.0165 O   0  0  0  0  0  0  0  0  0  0  0  0
   14.2312   -1.5831   -5.3240 C   0  0  0  0  0  0  0  0  0  0  0  0
   19.0276   -6.0605   -5.2262 H   0  0  0  0  0  0  0  0  0  0  0  0
   18.0119   -7.2776   -6.0223 H   0  0  0  0  0  0  0  0  0  0  0  0
   18.2018   -7.3127   -4.2511 H   0  0  0  0  0  0  0  0  0  0  0  0
   18.1071   -4.4013   -4.0437 H   0  0  0  0  0  0  0  0  0  0  0  0
   15.2050   -3.9176   -4.4728 H   0  0  0  0  0  0  0  0  0  0  0  0
   16.9763   -2.8495   -0.6748 H   0  0  0  0  0  0  0  0  0  0  0  0
   17.4945   -1.9474   -2.0975 H   0  0  0  0  0  0  0  0  0  0  0  0
   17.9778   -3.6264   -1.8866 H   0  0  0  0  0  0  0  0  0  0  0  0
   15.0675   -1.3609   -2.5049 H   0  0  0  0  0  0  0  0  0  0  0  0
   14.5757   -2.3151   -1.1198 H   0  0  0  0  0  0  0  0  0  0  0  0
   13.8455   -2.6448   -2.6827 H   0  0  0  0  0  0  0  0  0  0  0  0
   15.1632   -4.6355   -0.8647 H   0  0  0  0  0  0  0  0  0  0  0  0
   16.1962   -5.4974   -2.0070 H   0  0  0  0  0  0  0  0  0  0  0  0
   14.5389   -5.1061   -2.4443 H   0  0  0  0  0  0  0  0  0  0  0  0
   16.9196   -1.0657   -7.0752 H   0  0  0  0  0  0  0  0  0  0  0  0
   17.7688    0.8882   -7.6183 H   0  0  0  0  0  0  0  0  0  0  0  0
   17.1273    3.4037   -7.0840 H   0  0  0  0  0  0  0  0  0  0  0  0
   17.7441    2.9503   -5.4859 H   0  0  0  0  0  0  0  0  0  0  0  0
   19.9110    0.9785   -6.9286 H   0  0  0  0  0  0  0  0  0  0  0  0
   22.1801    1.4600   -7.5804 H   0  0  0  0  0  0  0  0  0  0  0  0
   25.2830    4.9792   -5.5560 H   0  0  0  0  0  0  0  0  0  0  0  0
   24.1042    3.6916   -5.2956 H   0  0  0  0  0  0  0  0  0  0  0  0
   23.5556    5.3359   -5.6742 H   0  0  0  0  0  0  0  0  0  0  0  0
   26.2146    3.9950   -9.9602 H   0  0  0  0  0  0  0  0  0  0  0  0
   21.2549    5.6325   -7.8340 H   0  0  0  0  0  0  0  0  0  0  0  0
   18.9501    5.1497   -7.1851 H   0  0  0  0  0  0  0  0  0  0  0  0
   14.7715    0.3420   -8.0093 H   0  0  0  0  0  0  0  0  0  0  0  0
   14.8249   -1.4187   -8.1064 H   0  0  0  0  0  0  0  0  0  0  0  0
   13.3896    0.2861   -6.0273 H   0  0  0  0  0  0  0  0  0  0  0  0
   12.1950   -0.7118   -7.7058 H   0  0  0  0  0  0  0  0  0  0  0  0
   13.8485   -2.6041   -5.3612 H   0  0  0  0  0  0  0  0  0  0  0  0
   13.9587   -1.1581   -4.3579 H   0  0  0  0  0  0  0  0  0  0  0  0
  1 34  1  0  0  0  0
  1 35  1  0  0  0  0
  1 36  1  0  0  0  0
  1  2  1  0  0  0  0
  2  3  2  0  0  0  0
  2  4  1  0  0  0  0
  4 37  1  0  0  0  0
  5  4  1  0  0  0  0
  5 38  1  0  0  0  0
  5  6  1  0  0  0  0
  5 10  1  0  0  0  0
  6  7  1  0  0  0  0
  6  8  1  0  0  0  0
  6  9  1  0  0  0  0
  7 39  1  0  0  0  0
  7 40  1  0  0  0  0
  7 41  1  0  0  0  0
  8 42  1  0  0  0  0
  8 43  1  0  0  0  0
  8 44  1  0  0  0  0
  9 45  1  0  0  0  0
  9 46  1  0  0  0  0
  9 47  1  0  0  0  0
 10 11  2  0  0  0  0
 10 12  1  0  0  0  0
 12 33  1  0  0  0  0
 13 12  1  0  0  0  0
 13 30  1  0  0  0  0
 13 48  1  0  0  0  0
 13 14  1  0  0  0  0
 14 15  2  0  0  0  0
 14 16  1  0  0  0  0
 16 49  1  0  0  0  0
 16 17  1  0  0  0  0
 17 50  1  0  0  0  0
 17 51  1  0  0  0  0
 17 18  1  0  0  0  0
 18 19  1  0  0  0  0
 18 29  2  0  0  0  0
 19 52  1  0  0  0  0
 19 20  2  0  0  0  0
 20 53  1  0  0  0  0
 20 21  1  0  0  0  0
 21 28  2  0  0  0  0
 21 22  1  0  0  0  0
 22 23  2  0  0  0  0
 22 27  1  0  0  0  0
 23 24  1  0  0  0  0
 23 25  1  0  0  0  0
 24 54  1  0  0  0  0
 24 55  1  0  0  0  0
 24 56  1  0  0  0  0
 25 26  2  0  0  0  0
 26 57  1  0  0  0  0
 26 27  1  0  0  0  0
 28 58  1  0  0  0  0
 28 29  1  0  0  0  0
 29 59  1  0  0  0  0
 31 30  1  0  0  0  0
 30 60  1  0  0  0  0
 30 61  1  0  0  0  0
 31 33  1  0  0  0  0
 31 62  1  0  0  0  0
 31 32  1  0  0  0  0
 32 63  1  0  0  0  0
 33 64  1  0  0  0  0
 33 65  1  0  0  0  0
M  ZZC   1 c1
M  ZZC   2 c2
M  ZZC   3 o1
M  ZZC   4 n1
M  ZZC   5 c3
M  ZZC   6 c4
M  ZZC   7 c5
M  ZZC   8 c6
M  ZZC   9 c7
M  ZZC  10 c8
M  ZZC  11 o2
M  ZZC  12 n2
M  ZZC  13 c9
M  ZZC  14 c10
M  ZZC  15 o3
M  ZZC  16 n3
M  ZZC  17 c11
M  ZZC  18 c12
M  ZZC  19 c13
M  ZZC  20 c14
M  ZZC  21 c15
M  ZZC  22 c16
M  ZZC  23 c17
M  ZZC  24 c18
M  ZZC  25 n4
M  ZZC  26 c19
M  ZZC  27 s1
M  ZZC  28 c20
M  ZZC  29 c21
M  ZZC  30 c22
M  ZZC  31 c23
M  ZZC  32 o4
M  ZZC  33 c24
M  ZZC  34 h11
M  ZZC  35 h12
M  ZZC  36 h13
M  ZZC  37 h01
M  ZZC  38 h31
M  ZZC  39 h51
M  ZZC  40 h52
M  ZZC  41 h53
M  ZZC  42 h61
M  ZZC  43 h62
M  ZZC  44 h63
M  ZZC  45 h71
M  ZZC  46 h72
M  ZZC  47 h73
M  ZZC  48 h91
M  ZZC  49 h02
M  ZZC  50 h111
M  ZZC  51 h112
M  ZZC  52 h131
M  ZZC  53 h141
M  ZZC  54 h181
M  ZZC  55 h182
M  ZZC  56 h183
M  ZZC  57 h191
M  ZZC  58 h201
M  ZZC  59 h211
M  ZZC  60 h221
M  ZZC  61 h222
M  ZZC  62 h231
M  ZZC  63 h41
M  ZZC  64 h241
M  ZZC  65 h242
M  ZZM   1 1
M  ZZI   1 111
M  ZZM   2 3
M  ZZI   2 121
M  ZZM   3 7
M  ZZI   3 81
M  ZZM   4 10
M  ZZI   4 211
M  ZZM   5 1
M  ZZI   5 113
M  ZZM   6 1
M  ZZI   6 110
M  ZZM   7 1
M  ZZI   7 111
M  ZZM   8 1
M  ZZI   8 111
M  ZZM   9 1
M  ZZI   9 111
M  ZZM  10 3
M  ZZI  10 121
M  ZZM  11 7
M  ZZI  11 81
M  ZZM  12 10
M  ZZI  12 192
M  ZZM  13 1
M  ZZI  13 113
M  ZZM  14 3
M  ZZI  14 121
M  ZZM  15 7
M  ZZI  15 81
M  ZZM  16 10
M  ZZI  16 211
M  ZZM  17 1
M  ZZI  17 112
M  ZZM  18 37
M  ZZI  18 124
M  ZZM  19 37
M  ZZI  19 125
M  ZZM  20 37
M  ZZI  20 125
M  ZZM  21 37
M  ZZI  21 124
M  ZZM  22 63
M  ZZI  22 104
M  ZZM  23 64
M  ZZI  23 105
M  ZZM  24 1
M  ZZI  24 111
M  ZZM  25 66
M  ZZI  25 222
M  ZZM  26 63
M  ZZI  26 104
M  ZZM  27 44
M  ZZI  27 248
M  ZZM  28 37
M  ZZI  28 125
M  ZZM  29 37
M  ZZI  29 125
M  ZZM  30 1
M  ZZI  30 112
M  ZZM  31 1
M  ZZI  31 113
M  ZZM  32 6
M  ZZI  32 60
M  ZZM  33 1
M  ZZI  33 112
M  ZZM  34 5
M  ZZI  34 1
M  ZZM  35 5
M  ZZI  35 1
M  ZZM  36 5
M  ZZI  36 1
M  ZZM  37 28
M  ZZI  37 11
M  ZZM  38 5
M  ZZI  38 1
M  ZZM  39 5
M  ZZI  39 1
M  ZZM  40 5
M  ZZI  40 1
M  ZZM  41 5
M  ZZI  41 1
M  ZZM  42 5
M  ZZI  42 1
M  ZZM  43 5
M  ZZI  43 1
M  ZZM  44 5
M  ZZI  44 1
M  ZZM  45 5
M  ZZI  45 1
M  ZZM  46 5
M  ZZI  46 1
M  ZZM  47 5
M  ZZI  47 1
M  ZZM  48 5
M  ZZI  48 1
M  ZZM  49 28
M  ZZI  49 11
M  ZZM  50 5
M  ZZI  50 1
M  ZZM  51 5
M  ZZI  51 1
M  ZZM  52 5
M  ZZI  52 1
M  ZZM  53 5
M  ZZI  53 1
M  ZZM  54 5
M  ZZI  54 1
M  ZZM  55 5
M  ZZI  55 1
M  ZZM  56 5
M  ZZI  56 1
M  ZZM  57 5
M  ZZI  57 1
M  ZZM  58 5
M  ZZI  58 1
M  ZZM  59 5
M  ZZI  59 1
M  ZZM  60 5
M  ZZI  60 1
M  ZZM  61 5
M  ZZI  61 1
M  ZZM  62 5
M  ZZI  62 1
M  ZZM  63 21
M  ZZI  63 20
M  ZZM  64 5
M  ZZI  64 1
M  ZZM  65 5
M  ZZI  65 1
M  END
> <IX>
1

> <NAME>
VHL_5T8E_32.pdb

> <Score>
-11.704454

> <Natom>
65

> <Nflex>
8

> <Hbond>
-4.96499

> <Hphob>
-6.520694

> <VwInt>
-28.166099

> <Dsolv>
16.862994

> <SolEl>
17.09831

> <Eintl>
7.766339

> <RecConf>
ND

> <projPath>
VHL_maps/

> <NAME_>
VHL_5T8E_32.pdb

$$$$
