VHL_5G0J_2.pdb
  MOLSOFT 04032206413D

 65 67  0  0  1  0  0  0  0  0999 V2000
   18.3429   -6.8341   -5.3239 C   0  0  0  0  0  0  0  0  0  0  0  0
   17.1531   -5.9142   -5.2821 C   0  0  0  0  0  0  0  0  0  0  0  0
   16.0511   -6.3013   -5.6352 O   0  0  0  0  0  0  0  0  0  0  0  0
   17.4388   -4.6557   -4.7868 N   0  0  0  0  0  0  0  0  0  0  0  0
   16.4548   -3.5735   -4.6616 C   0  0  1  0  0  0  0  0  0  0  0  0
   15.8382   -3.4691   -3.2288 C   0  0  0  0  0  0  0  0  0  0  0  0
   14.6116   -2.5437   -3.2484 C   0  0  0  0  0  0  0  0  0  0  0  0
   16.8435   -2.9224   -2.2017 C   0  0  0  0  0  0  0  0  0  0  0  0
   15.3648   -4.8439   -2.7294 C   0  0  0  0  0  0  0  0  0  0  0  0
   17.1571   -2.2771   -5.1106 C   0  0  0  0  0  0  0  0  0  0  0  0
   18.3067   -2.0424   -4.7692 O   0  0  0  0  0  0  0  0  0  0  0  0
   16.4416   -1.3376   -5.8590 N   0  0  0  0  0  0  0  0  0  0  0  0
   17.0600   -0.0574   -6.1982 C   0  0  2  0  0  0  0  0  0  0  0  0
   17.1948    0.8937   -5.0109 C   0  0  0  0  0  0  0  0  0  0  0  0
   18.2495    1.4673   -4.7757 O   0  0  0  0  0  0  0  0  0  0  0  0
   16.0096    1.1630   -4.3475 N   0  0  0  0  0  0  0  0  0  0  0  0
   15.8751    2.2736   -3.4246 C   0  0  0  0  0  0  0  0  0  0  0  0
   15.3565    3.5126   -4.1176 C   0  0  0  0  0  0  0  0  0  0  0  0
   14.2094    4.1610   -3.6684 C   0  0  0  0  0  0  0  0  0  0  0  0
   13.7446    5.3036   -4.3026 C   0  0  0  0  0  0  0  0  0  0  0  0
   14.4067    5.8259   -5.4108 C   0  0  0  0  0  0  0  0  0  0  0  0
   13.9414    7.0279   -6.0897 C   0  0  0  0  0  0  0  0  0  0  0  0
   13.6171    7.2528   -7.4232 C   0  0  0  0  0  0  0  0  0  0  0  0
   13.6024    6.2604   -8.5236 C   0  0  0  0  0  0  0  0  0  0  0  0
   13.2931    8.5584   -7.7319 N   0  0  0  0  0  0  0  0  0  0  0  0
   13.3700    9.2975   -6.6486 C   0  0  0  0  0  0  0  0  0  0  0  0
   13.7801    8.4914   -5.2037 S   0  0  0  0  0  0  0  0  0  0  0  0
   15.5540    5.1838   -5.8551 C   0  0  0  0  0  0  0  0  0  0  0  0
   16.0270    4.0568   -5.2111 C   0  0  0  0  0  0  0  0  0  0  0  0
   16.1595    0.5584   -7.2699 C   0  0  0  0  0  0  0  0  0  0  0  0
   15.4393   -0.6293   -7.8714 C   0  0  1  0  0  0  0  0  0  0  0  0
   16.2233   -1.1907   -8.9320 O   0  0  0  0  0  0  0  0  0  0  0  0
   15.3015   -1.6088   -6.7125 C   0  0  0  0  0  0  0  0  0  0  0  0
   19.2823   -6.2733   -5.3429 H   0  0  0  0  0  0  0  0  0  0  0  0
   18.2917   -7.4475   -6.2278 H   0  0  0  0  0  0  0  0  0  0  0  0
   18.3204   -7.4832   -4.4457 H   0  0  0  0  0  0  0  0  0  0  0  0
   18.3916   -4.4593   -4.5023 H   0  0  0  0  0  0  0  0  0  0  0  0
   15.6640   -3.7986   -5.3650 H   0  0  0  0  0  0  0  0  0  0  0  0
   14.8771   -1.5168   -3.5105 H   0  0  0  0  0  0  0  0  0  0  0  0
   14.1242   -2.5034   -2.2687 H   0  0  0  0  0  0  0  0  0  0  0  0
   13.8628   -2.8883   -3.9687 H   0  0  0  0  0  0  0  0  0  0  0  0
   16.4291   -2.9447   -1.1885 H   0  0  0  0  0  0  0  0  0  0  0  0
   17.1179   -1.8832   -2.4068 H   0  0  0  0  0  0  0  0  0  0  0  0
   17.7645   -3.5103   -2.1864 H   0  0  0  0  0  0  0  0  0  0  0  0
   14.8733   -4.7691   -1.7544 H   0  0  0  0  0  0  0  0  0  0  0  0
   16.1935   -5.5470   -2.6090 H   0  0  0  0  0  0  0  0  0  0  0  0
   14.6435   -5.2907   -3.4162 H   0  0  0  0  0  0  0  0  0  0  0  0
   18.0609   -0.2517   -6.5870 H   0  0  0  0  0  0  0  0  0  0  0  0
   15.1801    0.6270   -4.5750 H   0  0  0  0  0  0  0  0  0  0  0  0
   15.1838    1.9491   -2.6400 H   0  0  0  0  0  0  0  0  0  0  0  0
   16.8399    2.4898   -2.9530 H   0  0  0  0  0  0  0  0  0  0  0  0
   13.6628    3.7789   -2.8110 H   0  0  0  0  0  0  0  0  0  0  0  0
   12.8441    5.7818   -3.9290 H   0  0  0  0  0  0  0  0  0  0  0  0
   14.6162    6.0761   -8.8904 H   0  0  0  0  0  0  0  0  0  0  0  0
   13.0016    6.6185   -9.3644 H   0  0  0  0  0  0  0  0  0  0  0  0
   13.1749    5.3085   -8.1960 H   0  0  0  0  0  0  0  0  0  0  0  0
   13.1850   10.3607   -6.6563 H   0  0  0  0  0  0  0  0  0  0  0  0
   16.1087    5.5732   -6.7040 H   0  0  0  0  0  0  0  0  0  0  0  0
   16.9420    3.6042   -5.5788 H   0  0  0  0  0  0  0  0  0  0  0  0
   15.4264    1.2513   -6.8446 H   0  0  0  0  0  0  0  0  0  0  0  0
   16.7456    1.1157   -8.0073 H   0  0  0  0  0  0  0  0  0  0  0  0
   14.4697   -0.3475   -8.2837 H   0  0  0  0  0  0  0  0  0  0  0  0
   17.1572   -1.1523   -8.6541 H   0  0  0  0  0  0  0  0  0  0  0  0
   15.3073   -2.6460   -7.0558 H   0  0  0  0  0  0  0  0  0  0  0  0
   14.3984   -1.4085   -6.1269 H   0  0  0  0  0  0  0  0  0  0  0  0
  1 34  1  0  0  0  0
  1 35  1  0  0  0  0
  1 36  1  0  0  0  0
  1  2  1  0  0  0  0
  2  3  2  0  0  0  0
  2  4  1  0  0  0  0
  4 37  1  0  0  0  0
  5  4  1  0  0  0  0
  5 38  1  0  0  0  0
  5  6  1  0  0  0  0
  5 10  1  0  0  0  0
  6  7  1  0  0  0  0
  6  8  1  0  0  0  0
  6  9  1  0  0  0  0
  7 39  1  0  0  0  0
  7 40  1  0  0  0  0
  7 41  1  0  0  0  0
  8 42  1  0  0  0  0
  8 43  1  0  0  0  0
  8 44  1  0  0  0  0
  9 45  1  0  0  0  0
  9 46  1  0  0  0  0
  9 47  1  0  0  0  0
 10 11  2  0  0  0  0
 10 12  1  0  0  0  0
 12 33  1  0  0  0  0
 13 12  1  0  0  0  0
 13 30  1  0  0  0  0
 13 48  1  0  0  0  0
 13 14  1  0  0  0  0
 14 15  2  0  0  0  0
 14 16  1  0  0  0  0
 16 49  1  0  0  0  0
 16 17  1  0  0  0  0
 17 50  1  0  0  0  0
 17 51  1  0  0  0  0
 17 18  1  0  0  0  0
 18 19  1  0  0  0  0
 18 29  2  0  0  0  0
 19 52  1  0  0  0  0
 19 20  2  0  0  0  0
 20 53  1  0  0  0  0
 20 21  1  0  0  0  0
 21 28  2  0  0  0  0
 21 22  1  0  0  0  0
 22 23  2  0  0  0  0
 22 27  1  0  0  0  0
 23 24  1  0  0  0  0
 23 25  1  0  0  0  0
 24 54  1  0  0  0  0
 24 55  1  0  0  0  0
 24 56  1  0  0  0  0
 25 26  2  0  0  0  0
 26 57  1  0  0  0  0
 26 27  1  0  0  0  0
 28 58  1  0  0  0  0
 28 29  1  0  0  0  0
 29 59  1  0  0  0  0
 31 30  1  0  0  0  0
 30 60  1  0  0  0  0
 30 61  1  0  0  0  0
 31 33  1  0  0  0  0
 31 62  1  0  0  0  0
 31 32  1  0  0  0  0
 32 63  1  0  0  0  0
 33 64  1  0  0  0  0
 33 65  1  0  0  0  0
M  ZZC   1 c1
M  ZZC   2 c2
M  ZZC   3 o1
M  ZZC   4 n1
M  ZZC   5 c3
M  ZZC   6 c4
M  ZZC   7 c5
M  ZZC   8 c6
M  ZZC   9 c7
M  ZZC  10 c8
M  ZZC  11 o2
M  ZZC  12 n2
M  ZZC  13 c9
M  ZZC  14 c10
M  ZZC  15 o3
M  ZZC  16 n3
M  ZZC  17 c11
M  ZZC  18 c12
M  ZZC  19 c13
M  ZZC  20 c14
M  ZZC  21 c15
M  ZZC  22 c16
M  ZZC  23 c17
M  ZZC  24 c18
M  ZZC  25 n4
M  ZZC  26 c19
M  ZZC  27 s1
M  ZZC  28 c20
M  ZZC  29 c21
M  ZZC  30 c22
M  ZZC  31 c23
M  ZZC  32 o4
M  ZZC  33 c24
M  ZZC  34 h11
M  ZZC  35 h12
M  ZZC  36 h13
M  ZZC  37 h01
M  ZZC  38 h31
M  ZZC  39 h51
M  ZZC  40 h52
M  ZZC  41 h53
M  ZZC  42 h61
M  ZZC  43 h62
M  ZZC  44 h63
M  ZZC  45 h71
M  ZZC  46 h72
M  ZZC  47 h73
M  ZZC  48 h91
M  ZZC  49 h02
M  ZZC  50 h111
M  ZZC  51 h112
M  ZZC  52 h131
M  ZZC  53 h141
M  ZZC  54 h181
M  ZZC  55 h182
M  ZZC  56 h183
M  ZZC  57 h191
M  ZZC  58 h201
M  ZZC  59 h211
M  ZZC  60 h221
M  ZZC  61 h222
M  ZZC  62 h231
M  ZZC  63 h41
M  ZZC  64 h241
M  ZZC  65 h242
M  ZZM   1 1
M  ZZI   1 111
M  ZZM   2 3
M  ZZI   2 121
M  ZZM   3 7
M  ZZI   3 81
M  ZZM   4 10
M  ZZI   4 211
M  ZZM   5 1
M  ZZI   5 113
M  ZZM   6 1
M  ZZI   6 110
M  ZZM   7 1
M  ZZI   7 111
M  ZZM   8 1
M  ZZI   8 111
M  ZZM   9 1
M  ZZI   9 111
M  ZZM  10 3
M  ZZI  10 121
M  ZZM  11 7
M  ZZI  11 81
M  ZZM  12 10
M  ZZI  12 192
M  ZZM  13 1
M  ZZI  13 113
M  ZZM  14 3
M  ZZI  14 121
M  ZZM  15 7
M  ZZI  15 81
M  ZZM  16 10
M  ZZI  16 211
M  ZZM  17 1
M  ZZI  17 112
M  ZZM  18 37
M  ZZI  18 124
M  ZZM  19 37
M  ZZI  19 125
M  ZZM  20 37
M  ZZI  20 125
M  ZZM  21 37
M  ZZI  21 124
M  ZZM  22 63
M  ZZI  22 104
M  ZZM  23 64
M  ZZI  23 105
M  ZZM  24 1
M  ZZI  24 111
M  ZZM  25 66
M  ZZI  25 222
M  ZZM  26 63
M  ZZI  26 104
M  ZZM  27 44
M  ZZI  27 248
M  ZZM  28 37
M  ZZI  28 125
M  ZZM  29 37
M  ZZI  29 125
M  ZZM  30 1
M  ZZI  30 112
M  ZZM  31 1
M  ZZI  31 113
M  ZZM  32 6
M  ZZI  32 60
M  ZZM  33 1
M  ZZI  33 112
M  ZZM  34 5
M  ZZI  34 1
M  ZZM  35 5
M  ZZI  35 1
M  ZZM  36 5
M  ZZI  36 1
M  ZZM  37 28
M  ZZI  37 11
M  ZZM  38 5
M  ZZI  38 1
M  ZZM  39 5
M  ZZI  39 1
M  ZZM  40 5
M  ZZI  40 1
M  ZZM  41 5
M  ZZI  41 1
M  ZZM  42 5
M  ZZI  42 1
M  ZZM  43 5
M  ZZI  43 1
M  ZZM  44 5
M  ZZI  44 1
M  ZZM  45 5
M  ZZI  45 1
M  ZZM  46 5
M  ZZI  46 1
M  ZZM  47 5
M  ZZI  47 1
M  ZZM  48 5
M  ZZI  48 1
M  ZZM  49 28
M  ZZI  49 11
M  ZZM  50 5
M  ZZI  50 1
M  ZZM  51 5
M  ZZI  51 1
M  ZZM  52 5
M  ZZI  52 1
M  ZZM  53 5
M  ZZI  53 1
M  ZZM  54 5
M  ZZI  54 1
M  ZZM  55 5
M  ZZI  55 1
M  ZZM  56 5
M  ZZI  56 1
M  ZZM  57 5
M  ZZI  57 1
M  ZZM  58 5
M  ZZI  58 1
M  ZZM  59 5
M  ZZI  59 1
M  ZZM  60 5
M  ZZI  60 1
M  ZZM  61 5
M  ZZI  61 1
M  ZZM  62 5
M  ZZI  62 1
M  ZZM  63 21
M  ZZI  63 20
M  ZZM  64 5
M  ZZI  64 1
M  ZZM  65 5
M  ZZI  65 1
M  END
> <IX>
1

> <NAME>
VHL_5G0J_2.pdb

> <Score>
-24.107555

> <Natom>
65

> <Nflex>
8

> <Hbond>
-7.882629

> <Hphob>
-6.541449

> <VwInt>
-31.112364

> <Dsolv>
21.314572

> <SolEl>
9.485495

> <Eintl>
7.140458

> <RecConf>
ND

> <projPath>
VHL_maps/

> <NAME_>
VHL_5G0J_2.pdb

$$$$
