VHL_6MX8_6.pdb
  MOLSOFT 04032206433D

 65 67  0  0  1  0  0  0  0  0999 V2000
   18.1192   -6.6595   -5.1254 C   0  0  0  0  0  0  0  0  0  0  0  0
   16.9038   -5.7868   -4.9715 C   0  0  0  0  0  0  0  0  0  0  0  0
   15.8185   -6.1470   -5.3932 O   0  0  0  0  0  0  0  0  0  0  0  0
   17.1458   -4.6077   -4.2941 N   0  0  0  0  0  0  0  0  0  0  0  0
   16.1350   -3.5722   -4.0232 C   0  0  1  0  0  0  0  0  0  0  0  0
   15.8889   -3.3878   -2.4964 C   0  0  0  0  0  0  0  0  0  0  0  0
   14.7814   -2.3716   -2.1942 C   0  0  0  0  0  0  0  0  0  0  0  0
   15.4232   -4.7314   -1.9223 C   0  0  0  0  0  0  0  0  0  0  0  0
   17.1507   -2.9273   -1.7526 C   0  0  0  0  0  0  0  0  0  0  0  0
   16.6288   -2.3281   -4.7918 C   0  0  0  0  0  0  0  0  0  0  0  0
   17.8233   -2.0583   -4.8434 O   0  0  0  0  0  0  0  0  0  0  0  0
   15.6770   -1.5552   -5.4646 N   0  0  0  0  0  0  0  0  0  0  0  0
   16.0711   -0.6418   -6.5269 C   0  0  2  0  0  0  0  0  0  0  0  0
   16.4545    0.7492   -6.0149 C   0  0  0  0  0  0  0  0  0  0  0  0
   15.9334    1.2672   -5.0365 O   0  0  0  0  0  0  0  0  0  0  0  0
   17.3868    1.3845   -6.8142 N   0  0  0  0  0  0  0  0  0  0  0  0
   17.8383    2.7396   -6.5436 C   0  0  0  0  0  0  0  0  0  0  0  0
   19.2478    3.0194   -7.0079 C   0  0  0  0  0  0  0  0  0  0  0  0
   19.6632    4.3248   -7.2626 C   0  0  0  0  0  0  0  0  0  0  0  0
   20.9721    4.6031   -7.6318 C   0  0  0  0  0  0  0  0  0  0  0  0
   21.9028    3.5790   -7.7545 C   0  0  0  0  0  0  0  0  0  0  0  0
   23.2870    3.8392   -8.1155 C   0  0  0  0  0  0  0  0  0  0  0  0
   24.3570    4.2559   -7.3364 C   0  0  0  0  0  0  0  0  0  0  0  0
   24.3295    4.5844   -5.8932 C   0  0  0  0  0  0  0  0  0  0  0  0
   25.5653    4.3364   -7.9993 N   0  0  0  0  0  0  0  0  0  0  0  0
   25.4004    4.0073   -9.2608 C   0  0  0  0  0  0  0  0  0  0  0  0
   23.8135    3.5925   -9.7322 S   0  0  0  0  0  0  0  0  0  0  0  0
   21.4895    2.2815   -7.4992 C   0  0  0  0  0  0  0  0  0  0  0  0
   20.1897    2.0059   -7.1286 C   0  0  0  0  0  0  0  0  0  0  0  0
   14.8354   -0.5682   -7.4096 C   0  0  0  0  0  0  0  0  0  0  0  0
   13.6816   -0.6899   -6.4253 C   0  0  1  0  0  0  0  0  0  0  0  0
   12.5406   -1.3055   -7.0171 O   0  0  0  0  0  0  0  0  0  0  0  0
   14.2309   -1.5804   -5.3238 C   0  0  0  0  0  0  0  0  0  0  0  0
   19.0263   -6.0573   -5.2334 H   0  0  0  0  0  0  0  0  0  0  0  0
   18.0100   -7.2809   -6.0193 H   0  0  0  0  0  0  0  0  0  0  0  0
   18.2067   -7.3056   -4.2487 H   0  0  0  0  0  0  0  0  0  0  0  0
   18.1064   -4.3997   -4.0456 H   0  0  0  0  0  0  0  0  0  0  0  0
   15.2044   -3.9167   -4.4742 H   0  0  0  0  0  0  0  0  0  0  0  0
   15.0641   -1.3616   -2.5034 H   0  0  0  0  0  0  0  0  0  0  0  0
   14.5705   -2.3185   -1.1209 H   0  0  0  0  0  0  0  0  0  0  0  0
   13.8429   -2.6456   -2.6857 H   0  0  0  0  0  0  0  0  0  0  0  0
   15.1640   -4.6367   -0.8652 H   0  0  0  0  0  0  0  0  0  0  0  0
   16.1948   -5.4985   -2.0099 H   0  0  0  0  0  0  0  0  0  0  0  0
   14.5360   -5.1055   -2.4432 H   0  0  0  0  0  0  0  0  0  0  0  0
   16.9716   -2.8461   -0.6755 H   0  0  0  0  0  0  0  0  0  0  0  0
   17.4923   -1.9470   -2.0989 H   0  0  0  0  0  0  0  0  0  0  0  0
   17.9746   -3.6262   -1.8834 H   0  0  0  0  0  0  0  0  0  0  0  0
   16.9191   -1.0642   -7.0758 H   0  0  0  0  0  0  0  0  0  0  0  0
   17.7786    0.8868   -7.6089 H   0  0  0  0  0  0  0  0  0  0  0  0
   17.1366    3.4038   -7.0598 H   0  0  0  0  0  0  0  0  0  0  0  0
   17.7639    2.9387   -5.4693 H   0  0  0  0  0  0  0  0  0  0  0  0
   18.9605    5.1474   -7.1669 H   0  0  0  0  0  0  0  0  0  0  0  0
   21.2630    5.6319   -7.8222 H   0  0  0  0  0  0  0  0  0  0  0  0
   25.3016    4.9570   -5.5580 H   0  0  0  0  0  0  0  0  0  0  0  0
   24.0826    3.7038   -5.2932 H   0  0  0  0  0  0  0  0  0  0  0  0
   23.5765    5.3484   -5.6868 H   0  0  0  0  0  0  0  0  0  0  0  0
   26.2174    3.9995   -9.9681 H   0  0  0  0  0  0  0  0  0  0  0  0
   22.1871    1.4582   -7.5897 H   0  0  0  0  0  0  0  0  0  0  0  0
   19.9201    0.9749   -6.9325 H   0  0  0  0  0  0  0  0  0  0  0  0
   14.7712    0.3480   -8.0061 H   0  0  0  0  0  0  0  0  0  0  0  0
   14.8242   -1.4123   -8.1077 H   0  0  0  0  0  0  0  0  0  0  0  0
   13.3878    0.2880   -6.0268 H   0  0  0  0  0  0  0  0  0  0  0  0
   12.1969   -0.7118   -7.7090 H   0  0  0  0  0  0  0  0  0  0  0  0
   13.8470   -2.6011   -5.3598 H   0  0  0  0  0  0  0  0  0  0  0  0
   13.9599   -1.1544   -4.3577 H   0  0  0  0  0  0  0  0  0  0  0  0
  1 34  1  0  0  0  0
  1 35  1  0  0  0  0
  1 36  1  0  0  0  0
  1  2  1  0  0  0  0
  2  3  2  0  0  0  0
  2  4  1  0  0  0  0
  4 37  1  0  0  0  0
  5  4  1  0  0  0  0
  5 38  1  0  0  0  0
  5  6  1  0  0  0  0
  5 10  1  0  0  0  0
  6  7  1  0  0  0  0
  6  8  1  0  0  0  0
  6  9  1  0  0  0  0
  7 39  1  0  0  0  0
  7 40  1  0  0  0  0
  7 41  1  0  0  0  0
  8 42  1  0  0  0  0
  8 43  1  0  0  0  0
  8 44  1  0  0  0  0
  9 45  1  0  0  0  0
  9 46  1  0  0  0  0
  9 47  1  0  0  0  0
 10 11  2  0  0  0  0
 10 12  1  0  0  0  0
 12 33  1  0  0  0  0
 13 12  1  0  0  0  0
 13 30  1  0  0  0  0
 13 48  1  0  0  0  0
 13 14  1  0  0  0  0
 14 15  2  0  0  0  0
 14 16  1  0  0  0  0
 16 49  1  0  0  0  0
 16 17  1  0  0  0  0
 17 50  1  0  0  0  0
 17 51  1  0  0  0  0
 17 18  1  0  0  0  0
 18 19  1  0  0  0  0
 18 29  2  0  0  0  0
 19 52  1  0  0  0  0
 19 20  2  0  0  0  0
 20 53  1  0  0  0  0
 20 21  1  0  0  0  0
 21 28  2  0  0  0  0
 21 22  1  0  0  0  0
 22 23  2  0  0  0  0
 22 27  1  0  0  0  0
 23 24  1  0  0  0  0
 23 25  1  0  0  0  0
 24 54  1  0  0  0  0
 24 55  1  0  0  0  0
 24 56  1  0  0  0  0
 25 26  2  0  0  0  0
 26 57  1  0  0  0  0
 26 27  1  0  0  0  0
 28 58  1  0  0  0  0
 28 29  1  0  0  0  0
 29 59  1  0  0  0  0
 31 30  1  0  0  0  0
 30 60  1  0  0  0  0
 30 61  1  0  0  0  0
 31 33  1  0  0  0  0
 31 62  1  0  0  0  0
 31 32  1  0  0  0  0
 32 63  1  0  0  0  0
 33 64  1  0  0  0  0
 33 65  1  0  0  0  0
M  ZZC   1 c1
M  ZZC   2 c2
M  ZZC   3 o1
M  ZZC   4 n1
M  ZZC   5 c3
M  ZZC   6 c4
M  ZZC   7 c5
M  ZZC   8 c6
M  ZZC   9 c7
M  ZZC  10 c8
M  ZZC  11 o2
M  ZZC  12 n2
M  ZZC  13 c9
M  ZZC  14 c10
M  ZZC  15 o3
M  ZZC  16 n3
M  ZZC  17 c11
M  ZZC  18 c12
M  ZZC  19 c13
M  ZZC  20 c14
M  ZZC  21 c15
M  ZZC  22 c16
M  ZZC  23 c17
M  ZZC  24 c18
M  ZZC  25 n4
M  ZZC  26 c19
M  ZZC  27 s1
M  ZZC  28 c20
M  ZZC  29 c21
M  ZZC  30 c22
M  ZZC  31 c23
M  ZZC  32 o4
M  ZZC  33 c24
M  ZZC  34 h11
M  ZZC  35 h12
M  ZZC  36 h13
M  ZZC  37 h01
M  ZZC  38 h31
M  ZZC  39 h51
M  ZZC  40 h52
M  ZZC  41 h53
M  ZZC  42 h61
M  ZZC  43 h62
M  ZZC  44 h63
M  ZZC  45 h71
M  ZZC  46 h72
M  ZZC  47 h73
M  ZZC  48 h91
M  ZZC  49 h02
M  ZZC  50 h111
M  ZZC  51 h112
M  ZZC  52 h131
M  ZZC  53 h141
M  ZZC  54 h181
M  ZZC  55 h182
M  ZZC  56 h183
M  ZZC  57 h191
M  ZZC  58 h201
M  ZZC  59 h211
M  ZZC  60 h221
M  ZZC  61 h222
M  ZZC  62 h231
M  ZZC  63 h41
M  ZZC  64 h241
M  ZZC  65 h242
M  ZZM   1 1
M  ZZI   1 111
M  ZZM   2 3
M  ZZI   2 121
M  ZZM   3 7
M  ZZI   3 81
M  ZZM   4 10
M  ZZI   4 211
M  ZZM   5 1
M  ZZI   5 113
M  ZZM   6 1
M  ZZI   6 110
M  ZZM   7 1
M  ZZI   7 111
M  ZZM   8 1
M  ZZI   8 111
M  ZZM   9 1
M  ZZI   9 111
M  ZZM  10 3
M  ZZI  10 121
M  ZZM  11 7
M  ZZI  11 81
M  ZZM  12 10
M  ZZI  12 192
M  ZZM  13 1
M  ZZI  13 113
M  ZZM  14 3
M  ZZI  14 121
M  ZZM  15 7
M  ZZI  15 81
M  ZZM  16 10
M  ZZI  16 211
M  ZZM  17 1
M  ZZI  17 112
M  ZZM  18 37
M  ZZI  18 124
M  ZZM  19 37
M  ZZI  19 125
M  ZZM  20 37
M  ZZI  20 125
M  ZZM  21 37
M  ZZI  21 124
M  ZZM  22 63
M  ZZI  22 104
M  ZZM  23 64
M  ZZI  23 105
M  ZZM  24 1
M  ZZI  24 111
M  ZZM  25 66
M  ZZI  25 222
M  ZZM  26 63
M  ZZI  26 104
M  ZZM  27 44
M  ZZI  27 248
M  ZZM  28 37
M  ZZI  28 125
M  ZZM  29 37
M  ZZI  29 125
M  ZZM  30 1
M  ZZI  30 112
M  ZZM  31 1
M  ZZI  31 113
M  ZZM  32 6
M  ZZI  32 60
M  ZZM  33 1
M  ZZI  33 112
M  ZZM  34 5
M  ZZI  34 1
M  ZZM  35 5
M  ZZI  35 1
M  ZZM  36 5
M  ZZI  36 1
M  ZZM  37 28
M  ZZI  37 11
M  ZZM  38 5
M  ZZI  38 1
M  ZZM  39 5
M  ZZI  39 1
M  ZZM  40 5
M  ZZI  40 1
M  ZZM  41 5
M  ZZI  41 1
M  ZZM  42 5
M  ZZI  42 1
M  ZZM  43 5
M  ZZI  43 1
M  ZZM  44 5
M  ZZI  44 1
M  ZZM  45 5
M  ZZI  45 1
M  ZZM  46 5
M  ZZI  46 1
M  ZZM  47 5
M  ZZI  47 1
M  ZZM  48 5
M  ZZI  48 1
M  ZZM  49 28
M  ZZI  49 11
M  ZZM  50 5
M  ZZI  50 1
M  ZZM  51 5
M  ZZI  51 1
M  ZZM  52 5
M  ZZI  52 1
M  ZZM  53 5
M  ZZI  53 1
M  ZZM  54 5
M  ZZI  54 1
M  ZZM  55 5
M  ZZI  55 1
M  ZZM  56 5
M  ZZI  56 1
M  ZZM  57 5
M  ZZI  57 1
M  ZZM  58 5
M  ZZI  58 1
M  ZZM  59 5
M  ZZI  59 1
M  ZZM  60 5
M  ZZI  60 1
M  ZZM  61 5
M  ZZI  61 1
M  ZZM  62 5
M  ZZI  62 1
M  ZZM  63 21
M  ZZI  63 20
M  ZZM  64 5
M  ZZI  64 1
M  ZZM  65 5
M  ZZI  65 1
M  END
> <IX>
1

> <NAME>
VHL_6MX8_6.pdb

> <Score>
-11.847056

> <Natom>
65

> <Nflex>
8

> <Hbond>
-4.959028

> <Hphob>
-6.456954

> <VwInt>
-28.167119

> <Dsolv>
16.58366

> <SolEl>
16.947391

> <Eintl>
7.949233

> <RecConf>
ND

> <projPath>
VHL_maps/

> <NAME_>
VHL_6MX8_6.pdb

$$$$
