VHL_5EU1_8.pdb
  MOLSOFT 04032206393D

 65 67  0  0  1  0  0  0  0  0999 V2000
   15.8394   -6.3283   -5.5678 O   0  0  0  0  0  0  0  0  0  0  0  0
   16.9149   -6.0615   -5.0598 C   0  0  0  0  0  0  0  0  0  0  0  0
   17.1990   -4.8994   -4.3703 N   0  0  0  0  0  0  0  0  0  0  0  0
   16.2615   -3.7796   -4.2005 C   0  0  1  0  0  0  0  0  0  0  0  0
   15.8518   -3.5618   -2.7123 C   0  0  0  0  0  0  0  0  0  0  0  0
   17.0241   -3.0789   -1.8457 C   0  0  0  0  0  0  0  0  0  0  0  0
   15.3236   -4.8856   -2.1449 C   0  0  0  0  0  0  0  0  0  0  0  0
   14.7200   -2.5329   -2.5761 C   0  0  0  0  0  0  0  0  0  0  0  0
   16.9622   -2.5787   -4.8591 C   0  0  0  0  0  0  0  0  0  0  0  0
   18.1659   -2.4011   -4.7298 O   0  0  0  0  0  0  0  0  0  0  0  0
   16.1925   -1.6745   -5.5873 N   0  0  0  0  0  0  0  0  0  0  0  0
   16.8315   -0.5869   -6.3155 C   0  0  2  0  0  0  0  0  0  0  0  0
   17.3693    0.5045   -5.3926 C   0  0  0  0  0  0  0  0  0  0  0  0
   16.9256    0.7059   -4.2699 O   0  0  0  0  0  0  0  0  0  0  0  0
   18.3287    1.2944   -6.0029 N   0  0  0  0  0  0  0  0  0  0  0  0
   18.6926    2.5972   -5.4817 C   0  0  0  0  0  0  0  0  0  0  0  0
   17.6900    3.6052   -5.9765 C   0  0  0  0  0  0  0  0  0  0  0  0
   16.4429    3.6866   -5.3661 C   0  0  0  0  0  0  0  0  0  0  0  0
   15.4132    4.3789   -5.9637 C   0  0  0  0  0  0  0  0  0  0  0  0
   15.6208    5.0395   -7.1641 C   0  0  0  0  0  0  0  0  0  0  0  0
   14.4792    5.5953   -7.8573 C   0  0  0  0  0  0  0  0  0  0  0  0
   13.4469    4.9360   -8.5093 C   0  0  0  0  0  0  0  0  0  0  0  0
   13.3243    3.4753   -8.7358 C   0  0  0  0  0  0  0  0  0  0  0  0
   12.4349    5.7544   -8.9564 N   0  0  0  0  0  0  0  0  0  0  0  0
   12.7464    7.0057   -8.6981 C   0  0  0  0  0  0  0  0  0  0  0  0
   14.2274    7.2885   -7.9051 S   0  0  0  0  0  0  0  0  0  0  0  0
   16.8980    5.0800   -7.7102 C   0  0  0  0  0  0  0  0  0  0  0  0
   17.9234    4.3519   -7.1283 C   0  0  0  0  0  0  0  0  0  0  0  0
   15.7425   -0.0349   -7.2353 C   0  0  0  0  0  0  0  0  0  0  0  0
   14.4625   -0.3936   -6.5030 C   0  0  1  0  0  0  0  0  0  0  0  0
   13.3485   -0.4446   -7.3899 O   0  0  0  0  0  0  0  0  0  0  0  0
   14.7970   -1.7634   -5.9475 C   0  0  0  0  0  0  0  0  0  0  0  0
   18.0660   -7.0248   -5.1185 C   0  0  0  0  0  0  0  0  0  0  0  0
   18.1512   -4.7632   -4.0505 H   0  0  0  0  0  0  0  0  0  0  0  0
   15.3625   -4.0205   -4.7617 H   0  0  0  0  0  0  0  0  0  0  0  0
   17.8713   -3.7606   -1.8982 H   0  0  0  0  0  0  0  0  0  0  0  0
   16.7376   -3.0058   -0.7916 H   0  0  0  0  0  0  0  0  0  0  0  0
   17.3771   -2.0889   -2.1506 H   0  0  0  0  0  0  0  0  0  0  0  0
   16.0876   -5.6654   -2.1558 H   0  0  0  0  0  0  0  0  0  0  0  0
   14.4709   -5.2580   -2.7216 H   0  0  0  0  0  0  0  0  0  0  0  0
   14.9932   -4.7677   -1.1099 H   0  0  0  0  0  0  0  0  0  0  0  0
   13.8234   -2.8520   -3.1159 H   0  0  0  0  0  0  0  0  0  0  0  0
   15.0141   -1.5474   -2.9481 H   0  0  0  0  0  0  0  0  0  0  0  0
   14.4257   -2.3998   -1.5298 H   0  0  0  0  0  0  0  0  0  0  0  0
   17.6598   -0.9879   -6.8967 H   0  0  0  0  0  0  0  0  0  0  0  0
   18.6928    1.0218   -6.9113 H   0  0  0  0  0  0  0  0  0  0  0  0
   18.7125    2.5712   -4.3865 H   0  0  0  0  0  0  0  0  0  0  0  0
   19.7023    2.8337   -5.8331 H   0  0  0  0  0  0  0  0  0  0  0  0
   16.2382    3.1395   -4.4508 H   0  0  0  0  0  0  0  0  0  0  0  0
   14.4273    4.3605   -5.5065 H   0  0  0  0  0  0  0  0  0  0  0  0
   12.4282    3.2488   -9.3203 H   0  0  0  0  0  0  0  0  0  0  0  0
   13.2425    2.9327   -7.7900 H   0  0  0  0  0  0  0  0  0  0  0  0
   14.1930    3.0848   -9.2725 H   0  0  0  0  0  0  0  0  0  0  0  0
   12.1054    7.8285   -8.9594 H   0  0  0  0  0  0  0  0  0  0  0  0
   17.0873    5.6333   -8.6259 H   0  0  0  0  0  0  0  0  0  0  0  0
   18.8949    4.3266   -7.6132 H   0  0  0  0  0  0  0  0  0  0  0  0
   15.8168    1.0400   -7.4309 H   0  0  0  0  0  0  0  0  0  0  0  0
   15.7717   -0.5350   -8.2110 H   0  0  0  0  0  0  0  0  0  0  0  0
   14.2613    0.3299   -5.7035 H   0  0  0  0  0  0  0  0  0  0  0  0
   12.5390   -0.3561   -6.8566 H   0  0  0  0  0  0  0  0  0  0  0  0
   14.7182   -2.5243   -6.7279 H   0  0  0  0  0  0  0  0  0  0  0  0
   14.1525   -2.0577   -5.1203 H   0  0  0  0  0  0  0  0  0  0  0  0
   17.9591   -7.6639   -5.9997 H   0  0  0  0  0  0  0  0  0  0  0  0
   18.0528   -7.6461   -4.2200 H   0  0  0  0  0  0  0  0  0  0  0  0
   19.0201   -6.4937   -5.1898 H   0  0  0  0  0  0  0  0  0  0  0  0
  1  2  2  0  0  0  0
  2  3  1  0  0  0  0
  2 33  1  0  0  0  0
  4  3  1  0  0  0  0
  3 34  1  0  0  0  0
  4  5  1  0  0  0  0
  4 35  1  0  0  0  0
  4  9  1  0  0  0  0
  5  6  1  0  0  0  0
  5  7  1  0  0  0  0
  5  8  1  0  0  0  0
  6 36  1  0  0  0  0
  6 37  1  0  0  0  0
  6 38  1  0  0  0  0
  7 39  1  0  0  0  0
  7 40  1  0  0  0  0
  7 41  1  0  0  0  0
  8 42  1  0  0  0  0
  8 43  1  0  0  0  0
  8 44  1  0  0  0  0
  9 10  2  0  0  0  0
  9 11  1  0  0  0  0
 11 32  1  0  0  0  0
 12 11  1  0  0  0  0
 12 29  1  0  0  0  0
 12 45  1  0  0  0  0
 12 13  1  0  0  0  0
 13 14  2  0  0  0  0
 13 15  1  0  0  0  0
 15 46  1  0  0  0  0
 15 16  1  0  0  0  0
 16 47  1  0  0  0  0
 16 48  1  0  0  0  0
 16 17  1  0  0  0  0
 17 18  1  0  0  0  0
 17 28  2  0  0  0  0
 18 49  1  0  0  0  0
 18 19  2  0  0  0  0
 19 50  1  0  0  0  0
 19 20  1  0  0  0  0
 20 27  2  0  0  0  0
 20 21  1  0  0  0  0
 21 22  2  0  0  0  0
 21 26  1  0  0  0  0
 22 23  1  0  0  0  0
 22 24  1  0  0  0  0
 23 51  1  0  0  0  0
 23 52  1  0  0  0  0
 23 53  1  0  0  0  0
 24 25  2  0  0  0  0
 25 54  1  0  0  0  0
 25 26  1  0  0  0  0
 27 55  1  0  0  0  0
 27 28  1  0  0  0  0
 28 56  1  0  0  0  0
 30 29  1  0  0  0  0
 29 57  1  0  0  0  0
 29 58  1  0  0  0  0
 30 32  1  0  0  0  0
 30 59  1  0  0  0  0
 30 31  1  0  0  0  0
 31 60  1  0  0  0  0
 32 61  1  0  0  0  0
 32 62  1  0  0  0  0
 33 63  1  0  0  0  0
 33 64  1  0  0  0  0
 33 65  1  0  0  0  0
M  ZZC   1 o1
M  ZZC   2 c1
M  ZZC   3 n1
M  ZZC   4 c2
M  ZZC   5 c3
M  ZZC   6 c4
M  ZZC   7 c5
M  ZZC   8 c6
M  ZZC   9 c7
M  ZZC  10 o2
M  ZZC  11 n2
M  ZZC  12 c8
M  ZZC  13 c9
M  ZZC  14 o3
M  ZZC  15 n3
M  ZZC  16 c10
M  ZZC  17 c11
M  ZZC  18 c12
M  ZZC  19 c13
M  ZZC  20 c14
M  ZZC  21 c15
M  ZZC  22 c16
M  ZZC  23 c17
M  ZZC  24 n4
M  ZZC  25 c18
M  ZZC  26 s1
M  ZZC  27 c19
M  ZZC  28 c20
M  ZZC  29 c21
M  ZZC  30 c22
M  ZZC  31 o4
M  ZZC  32 c23
M  ZZC  33 c24
M  ZZC  34 h11
M  ZZC  35 h21
M  ZZC  36 h41
M  ZZC  37 h42
M  ZZC  38 h43
M  ZZC  39 h51
M  ZZC  40 h52
M  ZZC  41 h53
M  ZZC  42 h61
M  ZZC  43 h62
M  ZZC  44 h63
M  ZZC  45 h81
M  ZZC  46 h31
M  ZZC  47 h101
M  ZZC  48 h102
M  ZZC  49 h121
M  ZZC  50 h131
M  ZZC  51 h171
M  ZZC  52 h172
M  ZZC  53 h173
M  ZZC  54 h181
M  ZZC  55 h191
M  ZZC  56 h201
M  ZZC  57 h211
M  ZZC  58 h212
M  ZZC  59 h221
M  ZZC  60 h01
M  ZZC  61 h231
M  ZZC  62 h232
M  ZZC  63 h241
M  ZZC  64 h242
M  ZZC  65 h243
M  ZZM   1 7
M  ZZI   1 81
M  ZZM   2 3
M  ZZI   2 121
M  ZZM   3 10
M  ZZI   3 211
M  ZZM   4 1
M  ZZI   4 113
M  ZZM   5 1
M  ZZI   5 110
M  ZZM   6 1
M  ZZI   6 111
M  ZZM   7 1
M  ZZI   7 111
M  ZZM   8 1
M  ZZI   8 111
M  ZZM   9 3
M  ZZI   9 121
M  ZZM  10 7
M  ZZI  10 81
M  ZZM  11 10
M  ZZI  11 192
M  ZZM  12 1
M  ZZI  12 113
M  ZZM  13 3
M  ZZI  13 121
M  ZZM  14 7
M  ZZI  14 81
M  ZZM  15 10
M  ZZI  15 211
M  ZZM  16 1
M  ZZI  16 112
M  ZZM  17 37
M  ZZI  17 124
M  ZZM  18 37
M  ZZI  18 125
M  ZZM  19 37
M  ZZI  19 125
M  ZZM  20 37
M  ZZI  20 124
M  ZZM  21 63
M  ZZI  21 104
M  ZZM  22 64
M  ZZI  22 105
M  ZZM  23 1
M  ZZI  23 111
M  ZZM  24 66
M  ZZI  24 222
M  ZZM  25 63
M  ZZI  25 104
M  ZZM  26 44
M  ZZI  26 248
M  ZZM  27 37
M  ZZI  27 125
M  ZZM  28 37
M  ZZI  28 125
M  ZZM  29 1
M  ZZI  29 112
M  ZZM  30 1
M  ZZI  30 113
M  ZZM  31 6
M  ZZI  31 60
M  ZZM  32 1
M  ZZI  32 112
M  ZZM  33 1
M  ZZI  33 111
M  ZZM  34 28
M  ZZI  34 11
M  ZZM  35 5
M  ZZI  35 1
M  ZZM  36 5
M  ZZI  36 1
M  ZZM  37 5
M  ZZI  37 1
M  ZZM  38 5
M  ZZI  38 1
M  ZZM  39 5
M  ZZI  39 1
M  ZZM  40 5
M  ZZI  40 1
M  ZZM  41 5
M  ZZI  41 1
M  ZZM  42 5
M  ZZI  42 1
M  ZZM  43 5
M  ZZI  43 1
M  ZZM  44 5
M  ZZI  44 1
M  ZZM  45 5
M  ZZI  45 1
M  ZZM  46 28
M  ZZI  46 11
M  ZZM  47 5
M  ZZI  47 1
M  ZZM  48 5
M  ZZI  48 1
M  ZZM  49 5
M  ZZI  49 1
M  ZZM  50 5
M  ZZI  50 1
M  ZZM  51 5
M  ZZI  51 1
M  ZZM  52 5
M  ZZI  52 1
M  ZZM  53 5
M  ZZI  53 1
M  ZZM  54 5
M  ZZI  54 1
M  ZZM  55 5
M  ZZI  55 1
M  ZZM  56 5
M  ZZI  56 1
M  ZZM  57 5
M  ZZI  57 1
M  ZZM  58 5
M  ZZI  58 1
M  ZZM  59 5
M  ZZI  59 1
M  ZZM  60 21
M  ZZI  60 20
M  ZZM  61 5
M  ZZI  61 1
M  ZZM  62 5
M  ZZI  62 1
M  ZZM  63 5
M  ZZI  63 1
M  ZZM  64 5
M  ZZI  64 1
M  ZZM  65 5
M  ZZI  65 1
M  END
> <IX>
1

> <NAME>
VHL_5EU1_8.pdb

> <Score>
-7.240185

> <Natom>
65

> <Nflex>
8

> <Hbond>
-6.234071

> <Hphob>
-6.842779

> <VwInt>
-28.282419

> <Dsolv>
21.864288

> <SolEl>
23.839769

> <Eintl>
7.444385

> <RecConf>
ND

> <projPath>
VHL_maps/

> <NAME_>
VHL_5EU1_8.pdb

$$$$
