VHL_4CI3_32.pdb
  MOLSOFT 04032206393D

 70 73  0  0  1  0  0  0  0  0999 V2000
   18.3303   -1.7398   -2.0651 S   0  0  0  0  0  0  0  0  0  0  0  0
   16.6025   -2.3364   -2.3840 C   0  0  0  0  0  0  0  0  0  0  0  0
   16.4394   -2.7388   -3.8824 C   0  0  2  0  0  0  0  0  0  0  0  0
   17.2932   -3.8471   -4.3303 N   0  0  0  0  0  0  0  0  0  0  0  0
   16.8151   -5.1302   -4.4741 C   0  0  0  0  0  0  0  0  0  0  0  0
   15.7374   -5.5009   -4.0339 O   0  0  0  0  0  0  0  0  0  0  0  0
   17.7065   -6.0509   -5.2407 C   0  0  0  0  0  0  0  0  0  0  0  0
   18.7376   -5.4476   -5.9549 F   0  0  0  0  0  0  0  0  0  0  0  0
   18.0340   -7.4180   -4.7111 C   0  0  0  0  0  0  0  0  0  0  0  0
   17.1404   -7.2879   -5.8992 C   0  0  0  0  0  0  0  0  0  0  0  0
   16.7224   -1.6203   -4.9050 C   0  0  0  0  0  0  0  0  0  0  0  0
   17.8691   -1.2854   -5.1791 O   0  0  0  0  0  0  0  0  0  0  0  0
   15.6229   -1.0708   -5.5639 N   0  0  0  0  0  0  0  0  0  0  0  0
   15.8071   -0.2497   -6.7505 C   0  0  2  0  0  0  0  0  0  0  0  0
   16.1524    1.1958   -6.3885 C   0  0  0  0  0  0  0  0  0  0  0  0
   15.4666    1.8761   -5.6373 O   0  0  0  0  0  0  0  0  0  0  0  0
   17.3055    1.6509   -6.9986 N   0  0  0  0  0  0  0  0  0  0  0  0
   17.8160    2.9881   -6.7510 C   0  0  0  0  0  0  0  0  0  0  0  0
   19.2543    3.1872   -7.1676 C   0  0  0  0  0  0  0  0  0  0  0  0
   19.7130    4.4530   -7.5262 C   0  0  0  0  0  0  0  0  0  0  0  0
   21.0408    4.6665   -7.8676 C   0  0  0  0  0  0  0  0  0  0  0  0
   21.9485    3.6153   -7.8560 C   0  0  0  0  0  0  0  0  0  0  0  0
   23.3474    3.8133   -8.1996 C   0  0  0  0  0  0  0  0  0  0  0  0
   24.4276    4.1719   -7.4058 C   0  0  0  0  0  0  0  0  0  0  0  0
   24.3997    4.4974   -5.9621 C   0  0  0  0  0  0  0  0  0  0  0  0
   25.6443    4.2073   -8.0570 N   0  0  0  0  0  0  0  0  0  0  0  0
   25.4760    3.9044   -9.3245 C   0  0  0  0  0  0  0  0  0  0  0  0
   23.8768    3.5670   -9.8150 S   0  0  0  0  0  0  0  0  0  0  0  0
   21.4945    2.3566   -7.4933 C   0  0  0  0  0  0  0  0  0  0  0  0
   20.1752    2.1455   -7.1453 C   0  0  0  0  0  0  0  0  0  0  0  0
   14.4743   -0.3424   -7.4709 C   0  0  0  0  0  0  0  0  0  0  0  0
   13.4543   -0.5358   -6.3598 C   0  0  1  0  0  0  0  0  0  0  0  0
   12.3207   -1.2735   -6.8171 O   0  0  0  0  0  0  0  0  0  0  0  0
   14.2162   -1.3432   -5.3232 C   0  0  0  0  0  0  0  0  0  0  0  0
   16.2663   -3.5428   -1.4892 C   0  0  0  0  0  0  0  0  0  0  0  0
   15.6304   -1.1996   -2.0295 C   0  0  0  0  0  0  0  0  0  0  0  0
   18.4117   -1.7078   -0.2507 C   0  0  0  0  0  0  0  0  0  0  0  0
   15.4111   -3.0815   -4.0146 H   0  0  0  0  0  0  0  0  0  0  0  0
   18.2277   -3.6367   -4.6747 H   0  0  0  0  0  0  0  0  0  0  0  0
   19.0327   -7.7926   -4.8898 H   0  0  0  0  0  0  0  0  0  0  0  0
   17.5812   -7.7380   -3.7832 H   0  0  0  0  0  0  0  0  0  0  0  0
   16.0949   -7.5242   -5.7651 H   0  0  0  0  0  0  0  0  0  0  0  0
   17.5468   -7.6039   -6.8480 H   0  0  0  0  0  0  0  0  0  0  0  0
   16.6063   -0.6754   -7.3686 H   0  0  0  0  0  0  0  0  0  0  0  0
   17.8332    1.0196   -7.5955 H   0  0  0  0  0  0  0  0  0  0  0  0
   17.1649    3.6759   -7.3017 H   0  0  0  0  0  0  0  0  0  0  0  0
   17.7110    3.2123   -5.6840 H   0  0  0  0  0  0  0  0  0  0  0  0
   19.0284    5.2963   -7.5403 H   0  0  0  0  0  0  0  0  0  0  0  0
   21.3634    5.6656   -8.1454 H   0  0  0  0  0  0  0  0  0  0  0  0
   25.4026    4.7385   -5.5986 H   0  0  0  0  0  0  0  0  0  0  0  0
   24.0220    3.6548   -5.3755 H   0  0  0  0  0  0  0  0  0  0  0  0
   23.7485    5.3526   -5.7696 H   0  0  0  0  0  0  0  0  0  0  0  0
   26.2978    3.8717  -10.0254 H   0  0  0  0  0  0  0  0  0  0  0  0
   22.1718    1.5114   -7.4893 H   0  0  0  0  0  0  0  0  0  0  0  0
   19.8733    1.1437   -6.8588 H   0  0  0  0  0  0  0  0  0  0  0  0
   14.2469    0.5272   -8.0967 H   0  0  0  0  0  0  0  0  0  0  0  0
   14.4836   -1.2241   -8.1188 H   0  0  0  0  0  0  0  0  0  0  0  0
   13.1192    0.4219   -5.9463 H   0  0  0  0  0  0  0  0  0  0  0  0
   11.8605   -0.7430   -7.4934 H   0  0  0  0  0  0  0  0  0  0  0  0
   14.0253   -2.4153   -5.4222 H   0  0  0  0  0  0  0  0  0  0  0  0
   13.9438   -1.0467   -4.3081 H   0  0  0  0  0  0  0  0  0  0  0  0
   16.2057   -3.2748   -0.4305 H   0  0  0  0  0  0  0  0  0  0  0  0
   16.9989   -4.3472   -1.5864 H   0  0  0  0  0  0  0  0  0  0  0  0
   15.2886   -3.9623   -1.7486 H   0  0  0  0  0  0  0  0  0  0  0  0
   15.8229   -0.2902   -2.6058 H   0  0  0  0  0  0  0  0  0  0  0  0
   15.7307   -0.9159   -0.9772 H   0  0  0  0  0  0  0  0  0  0  0  0
   14.5852   -1.4780   -2.1988 H   0  0  0  0  0  0  0  0  0  0  0  0
   19.3615   -1.2552    0.0454 H   0  0  0  0  0  0  0  0  0  0  0  0
   18.3841   -2.7207    0.1591 H   0  0  0  0  0  0  0  0  0  0  0  0
   17.6067   -1.1075    0.1779 H   0  0  0  0  0  0  0  0  0  0  0  0
  1  2  1  0  0  0  0
  1 37  1  0  0  0  0
  3  2  1  0  0  0  0
  2 35  1  0  0  0  0
  2 36  1  0  0  0  0
  3  4  1  0  0  0  0
  3 38  1  0  0  0  0
  3 11  1  0  0  0  0
  4  5  1  0  0  0  0
  4 39  1  0  0  0  0
  5  7  1  0  0  0  0
  5  6  2  0  0  0  0
  7  8  1  0  0  0  0
  7  9  1  0  0  0  0
  7 10  1  0  0  0  0
  9 40  1  0  0  0  0
  9 41  1  0  0  0  0
  9 10  1  0  0  0  0
 10 42  1  0  0  0  0
 10 43  1  0  0  0  0
 11 12  2  0  0  0  0
 11 13  1  0  0  0  0
 13 34  1  0  0  0  0
 14 13  1  0  0  0  0
 14 31  1  0  0  0  0
 14 44  1  0  0  0  0
 14 15  1  0  0  0  0
 15 16  2  0  0  0  0
 15 17  1  0  0  0  0
 17 45  1  0  0  0  0
 17 18  1  0  0  0  0
 18 46  1  0  0  0  0
 18 47  1  0  0  0  0
 18 19  1  0  0  0  0
 19 20  1  0  0  0  0
 19 30  2  0  0  0  0
 20 48  1  0  0  0  0
 20 21  2  0  0  0  0
 21 49  1  0  0  0  0
 21 22  1  0  0  0  0
 22 29  2  0  0  0  0
 22 23  1  0  0  0  0
 23 24  2  0  0  0  0
 23 28  1  0  0  0  0
 24 25  1  0  0  0  0
 24 26  1  0  0  0  0
 25 50  1  0  0  0  0
 25 51  1  0  0  0  0
 25 52  1  0  0  0  0
 26 27  2  0  0  0  0
 27 53  1  0  0  0  0
 27 28  1  0  0  0  0
 29 54  1  0  0  0  0
 29 30  1  0  0  0  0
 30 55  1  0  0  0  0
 32 31  1  0  0  0  0
 31 56  1  0  0  0  0
 31 57  1  0  0  0  0
 32 34  1  0  0  0  0
 32 58  1  0  0  0  0
 32 33  1  0  0  0  0
 33 59  1  0  0  0  0
 34 60  1  0  0  0  0
 34 61  1  0  0  0  0
 35 62  1  0  0  0  0
 35 63  1  0  0  0  0
 35 64  1  0  0  0  0
 36 65  1  0  0  0  0
 36 66  1  0  0  0  0
 36 67  1  0  0  0  0
 37 68  1  0  0  0  0
 37 69  1  0  0  0  0
 37 70  1  0  0  0  0
M  ZZC   1 s1
M  ZZC   2 c1
M  ZZC   3 c2
M  ZZC   4 n1
M  ZZC   5 c3
M  ZZC   6 o1
M  ZZC   7 c4
M  ZZC   8 f1
M  ZZC   9 c5
M  ZZC  10 c6
M  ZZC  11 c7
M  ZZC  12 o2
M  ZZC  13 n2
M  ZZC  14 c8
M  ZZC  15 c9
M  ZZC  16 o3
M  ZZC  17 n3
M  ZZC  18 c10
M  ZZC  19 c11
M  ZZC  20 c12
M  ZZC  21 c13
M  ZZC  22 c14
M  ZZC  23 c15
M  ZZC  24 c16
M  ZZC  25 c17
M  ZZC  26 n4
M  ZZC  27 c18
M  ZZC  28 s2
M  ZZC  29 c19
M  ZZC  30 c20
M  ZZC  31 c21
M  ZZC  32 c22
M  ZZC  33 o4
M  ZZC  34 c23
M  ZZC  35 c24
M  ZZC  36 c25
M  ZZC  37 c26
M  ZZC  38 h21
M  ZZC  39 h11
M  ZZC  40 h51
M  ZZC  41 h52
M  ZZC  42 h61
M  ZZC  43 h62
M  ZZC  44 h81
M  ZZC  45 h31
M  ZZC  46 h101
M  ZZC  47 h102
M  ZZC  48 h121
M  ZZC  49 h131
M  ZZC  50 h171
M  ZZC  51 h172
M  ZZC  52 h173
M  ZZC  53 h181
M  ZZC  54 h191
M  ZZC  55 h201
M  ZZC  56 h211
M  ZZC  57 h212
M  ZZC  58 h221
M  ZZC  59 h41
M  ZZC  60 h231
M  ZZC  61 h232
M  ZZC  62 h241
M  ZZC  63 h242
M  ZZC  64 h243
M  ZZC  65 h251
M  ZZC  66 h252
M  ZZC  67 h253
M  ZZC  68 h261
M  ZZC  69 h262
M  ZZC  70 h263
M  ZZM   1 15
M  ZZI   1 253
M  ZZM   2 1
M  ZZI   2 110
M  ZZM   3 1
M  ZZI   3 113
M  ZZM   4 10
M  ZZI   4 211
M  ZZM   5 3
M  ZZI   5 121
M  ZZM   6 7
M  ZZI   6 81
M  ZZM   7 22
M  ZZI   7 109
M  ZZM   8 11
M  ZZI   8 90
M  ZZM   9 22
M  ZZI   9 109
M  ZZM  10 22
M  ZZI  10 109
M  ZZM  11 3
M  ZZI  11 121
M  ZZM  12 7
M  ZZI  12 81
M  ZZM  13 10
M  ZZI  13 192
M  ZZM  14 1
M  ZZI  14 113
M  ZZM  15 3
M  ZZI  15 121
M  ZZM  16 7
M  ZZI  16 81
M  ZZM  17 10
M  ZZI  17 211
M  ZZM  18 1
M  ZZI  18 112
M  ZZM  19 37
M  ZZI  19 124
M  ZZM  20 37
M  ZZI  20 125
M  ZZM  21 37
M  ZZI  21 125
M  ZZM  22 37
M  ZZI  22 124
M  ZZM  23 63
M  ZZI  23 104
M  ZZM  24 64
M  ZZI  24 105
M  ZZM  25 1
M  ZZI  25 111
M  ZZM  26 66
M  ZZI  26 222
M  ZZM  27 63
M  ZZI  27 104
M  ZZM  28 44
M  ZZI  28 248
M  ZZM  29 37
M  ZZI  29 125
M  ZZM  30 37
M  ZZI  30 125
M  ZZM  31 1
M  ZZI  31 112
M  ZZM  32 1
M  ZZI  32 113
M  ZZM  33 6
M  ZZI  33 60
M  ZZM  34 1
M  ZZI  34 112
M  ZZM  35 1
M  ZZI  35 111
M  ZZM  36 1
M  ZZI  36 111
M  ZZM  37 1
M  ZZI  37 111
M  ZZM  38 5
M  ZZI  38 1
M  ZZM  39 28
M  ZZI  39 11
M  ZZM  40 5
M  ZZI  40 1
M  ZZM  41 5
M  ZZI  41 1
M  ZZM  42 5
M  ZZI  42 1
M  ZZM  43 5
M  ZZI  43 1
M  ZZM  44 5
M  ZZI  44 1
M  ZZM  45 28
M  ZZI  45 11
M  ZZM  46 5
M  ZZI  46 1
M  ZZM  47 5
M  ZZI  47 1
M  ZZM  48 5
M  ZZI  48 1
M  ZZM  49 5
M  ZZI  49 1
M  ZZM  50 5
M  ZZI  50 1
M  ZZM  51 5
M  ZZI  51 1
M  ZZM  52 5
M  ZZI  52 1
M  ZZM  53 5
M  ZZI  53 1
M  ZZM  54 5
M  ZZI  54 1
M  ZZM  55 5
M  ZZI  55 1
M  ZZM  56 5
M  ZZI  56 1
M  ZZM  57 5
M  ZZI  57 1
M  ZZM  58 5
M  ZZI  58 1
M  ZZM  59 21
M  ZZI  59 20
M  ZZM  60 5
M  ZZI  60 1
M  ZZM  61 5
M  ZZI  61 1
M  ZZM  62 5
M  ZZI  62 1
M  ZZM  63 5
M  ZZI  63 1
M  ZZM  64 5
M  ZZI  64 1
M  ZZM  65 5
M  ZZI  65 1
M  ZZM  66 5
M  ZZI  66 1
M  ZZM  67 5
M  ZZI  67 1
M  ZZM  68 5
M  ZZI  68 1
M  ZZM  69 5
M  ZZI  69 1
M  ZZM  70 5
M  ZZI  70 1
M  END
> <IX>
1

> <NAME>
VHL_4CI3_32.pdb

> <Score>
-19.634891

> <Natom>
70

> <Nflex>
10

> <Hbond>
-6.373453

> <Hphob>
-6.394374

> <VwInt>
-33.673688

> <Dsolv>
17.341774

> <SolEl>
18.67758

> <Eintl>
5.190549

> <RecConf>
ND

> <projPath>
VHL_maps/

> <NAME_>
VHL_4CI3_32.pdb

$$$$
