VHL_3K6P_6.pdb
  MOLSOFT 04032206363D

 61 63  0  0  1  0  0  0  0  0999 V2000
   16.8846   -4.6277   -4.2605 N   0  3  0  0  0  0  0  0  0  0  0  0
   16.0254   -3.4163   -3.9475 C   0  0  1  0  0  0  0  0  0  0  0  0
   15.9300   -3.1750   -2.4085 C   0  0  0  0  0  0  0  0  0  0  0  0
   15.4780   -4.4638   -1.7093 C   0  0  0  0  0  0  0  0  0  0  0  0
   14.8863   -2.0985   -2.0799 C   0  0  0  0  0  0  0  0  0  0  0  0
   17.2673   -2.7329   -1.7985 C   0  0  0  0  0  0  0  0  0  0  0  0
   16.5467   -2.2221   -4.7711 C   0  0  0  0  0  0  0  0  0  0  0  0
   17.7520   -2.0284   -4.8697 O   0  0  0  0  0  0  0  0  0  0  0  0
   15.6074   -1.4540   -5.4624 N   0  0  0  0  0  0  0  0  0  0  0  0
   16.0102   -0.5633   -6.5417 C   0  0  2  0  0  0  0  0  0  0  0  0
   16.4112    0.8278   -6.0443 C   0  0  0  0  0  0  0  0  0  0  0  0
   15.8837    1.3660   -5.0804 O   0  0  0  0  0  0  0  0  0  0  0  0
   17.3703    1.4347   -6.8335 N   0  0  0  0  0  0  0  0  0  0  0  0
   17.8380    2.7855   -6.5684 C   0  0  0  0  0  0  0  0  0  0  0  0
   19.2516    3.0489   -7.0300 C   0  0  0  0  0  0  0  0  0  0  0  0
   19.6770    4.3486   -7.2968 C   0  0  0  0  0  0  0  0  0  0  0  0
   20.9894    4.6142   -7.6629 C   0  0  0  0  0  0  0  0  0  0  0  0
   21.9137    3.5827   -7.7701 C   0  0  0  0  0  0  0  0  0  0  0  0
   23.3005    3.8309   -8.1299 C   0  0  0  0  0  0  0  0  0  0  0  0
   24.3737    4.2373   -7.3499 C   0  0  0  0  0  0  0  0  0  0  0  0
   24.3483    4.5663   -5.9068 C   0  0  0  0  0  0  0  0  0  0  0  0
   25.5827    4.3099   -8.0127 N   0  0  0  0  0  0  0  0  0  0  0  0
   25.4151    3.9848   -9.2748 C   0  0  0  0  0  0  0  0  0  0  0  0
   23.8250    3.5843   -9.7472 S   0  0  0  0  0  0  0  0  0  0  0  0
   21.4906    2.2906   -7.5028 C   0  0  0  0  0  0  0  0  0  0  0  0
   20.1872    2.0275   -7.1349 C   0  0  0  0  0  0  0  0  0  0  0  0
   14.7718   -0.4877   -7.4200 C   0  0  0  0  0  0  0  0  0  0  0  0
   13.6162   -0.5881   -6.4338 C   0  0  1  0  0  0  0  0  0  0  0  0
   12.4792   -1.2202   -7.0169 O   0  0  0  0  0  0  0  0  0  0  0  0
   14.1603   -1.4633   -5.3175 C   0  0  0  0  0  0  0  0  0  0  0  0
   16.9370   -4.7830   -5.2761 H   0  0  0  0  0  0  0  0  0  0  0  0
   16.5234   -5.5005   -3.8518 H   0  0  0  0  0  0  0  0  0  0  0  0
   17.8613   -4.5107   -3.9519 H   0  0  0  0  0  0  0  0  0  0  0  0
   15.0409   -3.7087   -4.3171 H   0  0  0  0  0  0  0  0  0  0  0  0
   15.2342   -4.2824   -0.6584 H   0  0  0  0  0  0  0  0  0  0  0  0
   16.2576   -5.2270   -1.7309 H   0  0  0  0  0  0  0  0  0  0  0  0
   14.5873   -4.8881   -2.1829 H   0  0  0  0  0  0  0  0  0  0  0  0
   15.1672   -1.1266   -2.4990 H   0  0  0  0  0  0  0  0  0  0  0  0
   14.7831   -1.9595   -0.9992 H   0  0  0  0  0  0  0  0  0  0  0  0
   13.9044   -2.3452   -2.4938 H   0  0  0  0  0  0  0  0  0  0  0  0
   17.1935   -2.6249   -0.7115 H   0  0  0  0  0  0  0  0  0  0  0  0
   17.6006   -1.7692   -2.1951 H   0  0  0  0  0  0  0  0  0  0  0  0
   18.0549   -3.4590   -1.9927 H   0  0  0  0  0  0  0  0  0  0  0  0
   16.8523   -1.0045   -7.0863 H   0  0  0  0  0  0  0  0  0  0  0  0
   17.7697    0.9213   -7.6144 H   0  0  0  0  0  0  0  0  0  0  0  0
   17.1449    3.4562   -7.0878 H   0  0  0  0  0  0  0  0  0  0  0  0
   17.7635    2.9894   -5.4949 H   0  0  0  0  0  0  0  0  0  0  0  0
   18.9794    5.1770   -7.2135 H   0  0  0  0  0  0  0  0  0  0  0  0
   21.2879    5.6390   -7.8634 H   0  0  0  0  0  0  0  0  0  0  0  0
   25.3302    4.9039   -5.5626 H   0  0  0  0  0  0  0  0  0  0  0  0
   24.0738    3.6894   -5.3160 H   0  0  0  0  0  0  0  0  0  0  0  0
   23.6281    5.3630   -5.7003 H   0  0  0  0  0  0  0  0  0  0  0  0
   26.2319    3.9722   -9.9822 H   0  0  0  0  0  0  0  0  0  0  0  0
   22.1830    1.4616   -7.5819 H   0  0  0  0  0  0  0  0  0  0  0  0
   19.9096    1.0004   -6.9289 H   0  0  0  0  0  0  0  0  0  0  0  0
   14.7155    0.4214   -8.0279 H   0  0  0  0  0  0  0  0  0  0  0  0
   14.7535   -1.3408   -8.1067 H   0  0  0  0  0  0  0  0  0  0  0  0
   13.3211    0.3963   -6.0529 H   0  0  0  0  0  0  0  0  0  0  0  0
   12.1341   -0.6435   -7.7226 H   0  0  0  0  0  0  0  0  0  0  0  0
   13.7711   -2.4827   -5.3536 H   0  0  0  0  0  0  0  0  0  0  0  0
   13.8943   -1.0371   -4.3489 H   0  0  0  0  0  0  0  0  0  0  0  0
  1 31  1  0  0  0  0
  1 32  1  0  0  0  0
  1 33  1  0  0  0  0
  2  1  1  0  0  0  0
  2 34  1  0  0  0  0
  2  3  1  0  0  0  0
  2  7  1  0  0  0  0
  3  4  1  0  0  0  0
  3  5  1  0  0  0  0
  3  6  1  0  0  0  0
  4 35  1  0  0  0  0
  4 36  1  0  0  0  0
  4 37  1  0  0  0  0
  5 38  1  0  0  0  0
  5 39  1  0  0  0  0
  5 40  1  0  0  0  0
  6 41  1  0  0  0  0
  6 42  1  0  0  0  0
  6 43  1  0  0  0  0
  7  8  2  0  0  0  0
  7  9  1  0  0  0  0
  9 30  1  0  0  0  0
 10  9  1  0  0  0  0
 10 27  1  0  0  0  0
 10 44  1  0  0  0  0
 10 11  1  0  0  0  0
 11 12  2  0  0  0  0
 11 13  1  0  0  0  0
 13 45  1  0  0  0  0
 13 14  1  0  0  0  0
 14 46  1  0  0  0  0
 14 47  1  0  0  0  0
 14 15  1  0  0  0  0
 15 16  1  0  0  0  0
 15 26  2  0  0  0  0
 16 48  1  0  0  0  0
 16 17  2  0  0  0  0
 17 49  1  0  0  0  0
 17 18  1  0  0  0  0
 18 25  2  0  0  0  0
 18 19  1  0  0  0  0
 19 20  2  0  0  0  0
 19 24  1  0  0  0  0
 20 21  1  0  0  0  0
 20 22  1  0  0  0  0
 21 50  1  0  0  0  0
 21 51  1  0  0  0  0
 21 52  1  0  0  0  0
 22 23  2  0  0  0  0
 23 53  1  0  0  0  0
 23 24  1  0  0  0  0
 25 54  1  0  0  0  0
 25 26  1  0  0  0  0
 26 55  1  0  0  0  0
 28 27  1  0  0  0  0
 27 56  1  0  0  0  0
 27 57  1  0  0  0  0
 28 30  1  0  0  0  0
 28 58  1  0  0  0  0
 28 29  1  0  0  0  0
 29 59  1  0  0  0  0
 30 60  1  0  0  0  0
 30 61  1  0  0  0  0
M  ZZC   1 n1
M  ZZC   2 c1
M  ZZC   3 c2
M  ZZC   4 c3
M  ZZC   5 c4
M  ZZC   6 c5
M  ZZC   7 c6
M  ZZC   8 o1
M  ZZC   9 n2
M  ZZC  10 c7
M  ZZC  11 c8
M  ZZC  12 o2
M  ZZC  13 n3
M  ZZC  14 c9
M  ZZC  15 c10
M  ZZC  16 c11
M  ZZC  17 c12
M  ZZC  18 c13
M  ZZC  19 c14
M  ZZC  20 c15
M  ZZC  21 c16
M  ZZC  22 n4
M  ZZC  23 c17
M  ZZC  24 s1
M  ZZC  25 c18
M  ZZC  26 c19
M  ZZC  27 c20
M  ZZC  28 c21
M  ZZC  29 o3
M  ZZC  30 c22
M  ZZC  31 h11
M  ZZC  32 h12
M  ZZC  33 h13
M  ZZC  34 h01
M  ZZC  35 h31
M  ZZC  36 h32
M  ZZC  37 h33
M  ZZC  38 h41
M  ZZC  39 h42
M  ZZC  40 h43
M  ZZC  41 h51
M  ZZC  42 h52
M  ZZC  43 h53
M  ZZC  44 h71
M  ZZC  45 h02
M  ZZC  46 h91
M  ZZC  47 h92
M  ZZC  48 h111
M  ZZC  49 h121
M  ZZC  50 h161
M  ZZC  51 h162
M  ZZC  52 h163
M  ZZC  53 h171
M  ZZC  54 h181
M  ZZC  55 h191
M  ZZC  56 h201
M  ZZC  57 h202
M  ZZC  58 h211
M  ZZC  59 h03
M  ZZC  60 h221
M  ZZC  61 h222
M  ZZM   1 34
M  ZZI   1 231
M  ZZM   2 1
M  ZZI   2 113
M  ZZM   3 1
M  ZZI   3 110
M  ZZM   4 1
M  ZZI   4 111
M  ZZM   5 1
M  ZZI   5 111
M  ZZM   6 1
M  ZZI   6 111
M  ZZM   7 3
M  ZZI   7 121
M  ZZM   8 7
M  ZZI   8 81
M  ZZM   9 10
M  ZZI   9 192
M  ZZM  10 1
M  ZZI  10 113
M  ZZM  11 3
M  ZZI  11 121
M  ZZM  12 7
M  ZZI  12 81
M  ZZM  13 10
M  ZZI  13 211
M  ZZM  14 1
M  ZZI  14 112
M  ZZM  15 37
M  ZZI  15 124
M  ZZM  16 37
M  ZZI  16 125
M  ZZM  17 37
M  ZZI  17 125
M  ZZM  18 37
M  ZZI  18 124
M  ZZM  19 63
M  ZZI  19 104
M  ZZM  20 64
M  ZZI  20 105
M  ZZM  21 1
M  ZZI  21 111
M  ZZM  22 66
M  ZZI  22 222
M  ZZM  23 63
M  ZZI  23 104
M  ZZM  24 44
M  ZZI  24 248
M  ZZM  25 37
M  ZZI  25 125
M  ZZM  26 37
M  ZZI  26 125
M  ZZM  27 1
M  ZZI  27 112
M  ZZM  28 1
M  ZZI  28 113
M  ZZM  29 6
M  ZZI  29 60
M  ZZM  30 1
M  ZZI  30 112
M  ZZM  31 36
M  ZZI  31 17
M  ZZM  32 36
M  ZZI  32 17
M  ZZM  33 36
M  ZZI  33 17
M  ZZM  34 5
M  ZZI  34 1
M  ZZM  35 5
M  ZZI  35 1
M  ZZM  36 5
M  ZZI  36 1
M  ZZM  37 5
M  ZZI  37 1
M  ZZM  38 5
M  ZZI  38 1
M  ZZM  39 5
M  ZZI  39 1
M  ZZM  40 5
M  ZZI  40 1
M  ZZM  41 5
M  ZZI  41 1
M  ZZM  42 5
M  ZZI  42 1
M  ZZM  43 5
M  ZZI  43 1
M  ZZM  44 5
M  ZZI  44 1
M  ZZM  45 28
M  ZZI  45 11
M  ZZM  46 5
M  ZZI  46 1
M  ZZM  47 5
M  ZZI  47 1
M  ZZM  48 5
M  ZZI  48 1
M  ZZM  49 5
M  ZZI  49 1
M  ZZM  50 5
M  ZZI  50 1
M  ZZM  51 5
M  ZZI  51 1
M  ZZM  52 5
M  ZZI  52 1
M  ZZM  53 5
M  ZZI  53 1
M  ZZM  54 5
M  ZZI  54 1
M  ZZM  55 5
M  ZZI  55 1
M  ZZM  56 5
M  ZZI  56 1
M  ZZM  57 5
M  ZZI  57 1
M  ZZM  58 5
M  ZZI  58 1
M  ZZM  59 21
M  ZZI  59 20
M  ZZM  60 5
M  ZZI  60 1
M  ZZM  61 5
M  ZZI  61 1
M  CHG  1   1   1
M  END
> <IX>
1

> <NAME>
VHL_3K6P_6.pdb

> <Score>
-8.595222

> <Natom>
61

> <Nflex>
7

> <Hbond>
-4.734903

> <Hphob>
-5.504232

> <VwInt>
-26.379683

> <Dsolv>
16.644246

> <SolEl>
18.840561

> <Eintl>
7.222742

> <RecConf>
ND

> <projPath>
VHL_maps/

> <NAME_>
VHL_3K6P_6.pdb

$$$$
