VHL_5EHR_2.pdb
  MOLSOFT 04032206393D

 68 70  0  0  1  0  0  0  0  0999 V2000
    3.7366   -4.0345  -16.1445 C   0  0  0  0  0  0  0  0  0  0  0  0
    3.7128   -2.5395  -15.9862 C   0  0  0  0  0  0  0  0  0  0  0  0
    3.1928   -1.9952  -15.0239 O   0  0  0  0  0  0  0  0  0  0  0  0
    4.3397   -1.8808  -17.0244 N   0  0  0  0  0  0  0  0  0  0  0  0
    4.4975   -0.4230  -17.0578 C   0  0  2  0  0  0  0  0  0  0  0  0
    3.4920    0.2636  -18.0385 C   0  0  0  0  0  0  0  0  0  0  0  0
    2.0636    0.1536  -17.4795 C   0  0  0  0  0  0  0  0  0  0  0  0
    3.8232    1.7570  -18.1722 C   0  0  0  0  0  0  0  0  0  0  0  0
    3.4834   -0.3613  -19.4457 C   0  0  0  0  0  0  0  0  0  0  0  0
    5.9809   -0.1632  -17.3824 C   0  0  0  0  0  0  0  0  0  0  0  0
    6.3683    0.0441  -18.5244 O   0  0  0  0  0  0  0  0  0  0  0  0
    6.8925   -0.2446  -16.3297 N   0  0  0  0  0  0  0  0  0  0  0  0
    8.3005    0.0526  -16.5486 C   0  0  2  0  0  0  0  0  0  0  0  0
    9.0515   -1.0345  -17.3213 C   0  0  0  0  0  0  0  0  0  0  0  0
    8.7050   -2.2074  -17.3474 O   0  0  0  0  0  0  0  0  0  0  0  0
   10.1719   -0.5404  -17.9659 N   0  0  0  0  0  0  0  0  0  0  0  0
   10.9386   -1.2973  -18.9398 C   0  0  1  0  0  0  0  0  0  0  0  0
   11.0498   -0.4715  -20.2205 C   0  0  0  0  0  0  0  0  0  0  0  0
   12.3092   -1.7080  -18.4365 C   0  0  0  0  0  0  0  0  0  0  0  0
   12.8786   -1.1821  -17.2768 C   0  0  0  0  0  0  0  0  0  0  0  0
   14.1215   -1.6051  -16.8409 C   0  0  0  0  0  0  0  0  0  0  0  0
   14.8363   -2.5593  -17.5535 C   0  0  0  0  0  0  0  0  0  0  0  0
   16.1107   -3.0402  -17.0533 C   0  0  0  0  0  0  0  0  0  0  0  0
   16.3828   -3.8487  -15.9626 C   0  0  0  0  0  0  0  0  0  0  0  0
   15.3898   -4.5110  -15.0955 C   0  0  0  0  0  0  0  0  0  0  0  0
   17.7201   -4.0346  -15.6885 N   0  0  0  0  0  0  0  0  0  0  0  0
   18.4379   -3.4646  -16.6317 C   0  0  0  0  0  0  0  0  0  0  0  0
   17.5754   -2.6269  -17.8458 S   0  0  0  0  0  0  0  0  0  0  0  0
   14.2881   -3.0748  -18.7183 C   0  0  0  0  0  0  0  0  0  0  0  0
   13.0441   -2.6534  -19.1506 C   0  0  0  0  0  0  0  0  0  0  0  0
    8.8826    0.2420  -15.1573 C   0  0  0  0  0  0  0  0  0  0  0  0
    8.0016   -0.6391  -14.3068 C   0  0  1  0  0  0  0  0  0  0  0  0
    8.0588   -0.2451  -12.9408 O   0  0  0  0  0  0  0  0  0  0  0  0
    6.6240   -0.4727  -14.9231 C   0  0  0  0  0  0  0  0  0  0  0  0
    4.7717   -4.3832  -16.2056 H   0  0  0  0  0  0  0  0  0  0  0  0
    3.2013   -4.3210  -17.0547 H   0  0  0  0  0  0  0  0  0  0  0  0
    3.2561   -4.5066  -15.2826 H   0  0  0  0  0  0  0  0  0  0  0  0
    4.7432   -2.4277  -17.7792 H   0  0  0  0  0  0  0  0  0  0  0  0
    4.3075   -0.0319  -16.0526 H   0  0  0  0  0  0  0  0  0  0  0  0
    1.7302   -0.8855  -17.4031 H   0  0  0  0  0  0  0  0  0  0  0  0
    1.3410    0.6767  -18.1148 H   0  0  0  0  0  0  0  0  0  0  0  0
    1.9895    0.5979  -16.4848 H   0  0  0  0  0  0  0  0  0  0  0  0
    3.0320    2.2937  -18.7048 H   0  0  0  0  0  0  0  0  0  0  0  0
    4.7517    1.9252  -18.7219 H   0  0  0  0  0  0  0  0  0  0  0  0
    3.9420    2.2306  -17.1956 H   0  0  0  0  0  0  0  0  0  0  0  0
    2.7626    0.1160  -20.1134 H   0  0  0  0  0  0  0  0  0  0  0  0
    3.2125   -1.4217  -19.4018 H   0  0  0  0  0  0  0  0  0  0  0  0
    4.4659   -0.3030  -19.9238 H   0  0  0  0  0  0  0  0  0  0  0  0
    8.3553    0.9710  -17.1342 H   0  0  0  0  0  0  0  0  0  0  0  0
   10.4795    0.4073  -17.7723 H   0  0  0  0  0  0  0  0  0  0  0  0
   10.3746   -2.2098  -19.1627 H   0  0  0  0  0  0  0  0  0  0  0  0
   11.5478   -1.0258  -21.0219 H   0  0  0  0  0  0  0  0  0  0  0  0
   11.6182    0.4497  -20.0521 H   0  0  0  0  0  0  0  0  0  0  0  0
   10.0587   -0.1804  -20.5831 H   0  0  0  0  0  0  0  0  0  0  0  0
   12.3561   -0.4397  -16.6835 H   0  0  0  0  0  0  0  0  0  0  0  0
   14.5272   -1.1899  -15.9217 H   0  0  0  0  0  0  0  0  0  0  0  0
   15.7509   -4.5993  -14.0702 H   0  0  0  0  0  0  0  0  0  0  0  0
   15.1738   -5.5160  -15.4672 H   0  0  0  0  0  0  0  0  0  0  0  0
   14.4631   -3.9400  -15.0647 H   0  0  0  0  0  0  0  0  0  0  0  0
   19.5157   -3.5119  -16.6464 H   0  0  0  0  0  0  0  0  0  0  0  0
   14.8184   -3.8311  -19.2894 H   0  0  0  0  0  0  0  0  0  0  0  0
   12.6374   -3.0898  -20.0583 H   0  0  0  0  0  0  0  0  0  0  0  0
    9.9393   -0.0313  -15.0691 H   0  0  0  0  0  0  0  0  0  0  0  0
    8.7861    1.2812  -14.8287 H   0  0  0  0  0  0  0  0  0  0  0  0
    8.3247   -1.6744  -14.3991 H   0  0  0  0  0  0  0  0  0  0  0  0
    8.8822   -0.6247  -12.5820 H   0  0  0  0  0  0  0  0  0  0  0  0
    6.0846    0.3864  -14.5128 H   0  0  0  0  0  0  0  0  0  0  0  0
    6.0018   -1.3582  -14.7808 H   0  0  0  0  0  0  0  0  0  0  0  0
  1 35  1  0  0  0  0
  1 36  1  0  0  0  0
  1 37  1  0  0  0  0
  1  2  1  0  0  0  0
  2  3  2  0  0  0  0
  2  4  1  0  0  0  0
  4 38  1  0  0  0  0
  5  4  1  0  0  0  0
  5 39  1  0  0  0  0
  5  6  1  0  0  0  0
  5 10  1  0  0  0  0
  6  7  1  0  0  0  0
  6  8  1  0  0  0  0
  6  9  1  0  0  0  0
  7 40  1  0  0  0  0
  7 41  1  0  0  0  0
  7 42  1  0  0  0  0
  8 43  1  0  0  0  0
  8 44  1  0  0  0  0
  8 45  1  0  0  0  0
  9 46  1  0  0  0  0
  9 47  1  0  0  0  0
  9 48  1  0  0  0  0
 10 11  2  0  0  0  0
 10 12  1  0  0  0  0
 12 34  1  0  0  0  0
 13 12  1  0  0  0  0
 13 31  1  0  0  0  0
 13 49  1  0  0  0  0
 13 14  1  0  0  0  0
 14 15  2  0  0  0  0
 14 16  1  0  0  0  0
 16 50  1  0  0  0  0
 17 16  1  0  0  0  0
 17 51  1  0  0  0  0
 17 18  1  0  0  0  0
 17 19  1  0  0  0  0
 18 52  1  0  0  0  0
 18 53  1  0  0  0  0
 18 54  1  0  0  0  0
 19 20  1  0  0  0  0
 19 30  2  0  0  0  0
 20 55  1  0  0  0  0
 20 21  2  0  0  0  0
 21 56  1  0  0  0  0
 21 22  1  0  0  0  0
 22 29  2  0  0  0  0
 22 23  1  0  0  0  0
 23 24  2  0  0  0  0
 23 28  1  0  0  0  0
 24 25  1  0  0  0  0
 24 26  1  0  0  0  0
 25 57  1  0  0  0  0
 25 58  1  0  0  0  0
 25 59  1  0  0  0  0
 26 27  2  0  0  0  0
 27 60  1  0  0  0  0
 27 28  1  0  0  0  0
 29 61  1  0  0  0  0
 29 30  1  0  0  0  0
 30 62  1  0  0  0  0
 32 31  1  0  0  0  0
 31 63  1  0  0  0  0
 31 64  1  0  0  0  0
 32 34  1  0  0  0  0
 32 65  1  0  0  0  0
 32 33  1  0  0  0  0
 33 66  1  0  0  0  0
 34 67  1  0  0  0  0
 34 68  1  0  0  0  0
M  ZZC   1 c1
M  ZZC   2 c2
M  ZZC   3 o1
M  ZZC   4 n1
M  ZZC   5 c3
M  ZZC   6 c4
M  ZZC   7 c5
M  ZZC   8 c6
M  ZZC   9 c7
M  ZZC  10 c8
M  ZZC  11 o2
M  ZZC  12 n2
M  ZZC  13 c9
M  ZZC  14 c10
M  ZZC  15 o3
M  ZZC  16 n3
M  ZZC  17 c11
M  ZZC  18 c12
M  ZZC  19 c13
M  ZZC  20 c14
M  ZZC  21 c15
M  ZZC  22 c16
M  ZZC  23 c17
M  ZZC  24 c18
M  ZZC  25 c19
M  ZZC  26 n4
M  ZZC  27 c20
M  ZZC  28 s1
M  ZZC  29 c21
M  ZZC  30 c22
M  ZZC  31 c23
M  ZZC  32 c24
M  ZZC  33 o4
M  ZZC  34 c25
M  ZZC  35 h11
M  ZZC  36 h12
M  ZZC  37 h13
M  ZZC  38 h01
M  ZZC  39 h31
M  ZZC  40 h51
M  ZZC  41 h52
M  ZZC  42 h53
M  ZZC  43 h61
M  ZZC  44 h62
M  ZZC  45 h63
M  ZZC  46 h71
M  ZZC  47 h72
M  ZZC  48 h73
M  ZZC  49 h91
M  ZZC  50 h02
M  ZZC  51 h111
M  ZZC  52 h121
M  ZZC  53 h122
M  ZZC  54 h123
M  ZZC  55 h141
M  ZZC  56 h151
M  ZZC  57 h191
M  ZZC  58 h192
M  ZZC  59 h193
M  ZZC  60 h201
M  ZZC  61 h211
M  ZZC  62 h221
M  ZZC  63 h231
M  ZZC  64 h232
M  ZZC  65 h241
M  ZZC  66 h41
M  ZZC  67 h251
M  ZZC  68 h252
M  ZZM   1 1
M  ZZI   1 111
M  ZZM   2 3
M  ZZI   2 121
M  ZZM   3 7
M  ZZI   3 81
M  ZZM   4 10
M  ZZI   4 211
M  ZZM   5 1
M  ZZI   5 113
M  ZZM   6 1
M  ZZI   6 110
M  ZZM   7 1
M  ZZI   7 111
M  ZZM   8 1
M  ZZI   8 111
M  ZZM   9 1
M  ZZI   9 111
M  ZZM  10 3
M  ZZI  10 121
M  ZZM  11 7
M  ZZI  11 81
M  ZZM  12 10
M  ZZI  12 192
M  ZZM  13 1
M  ZZI  13 113
M  ZZM  14 3
M  ZZI  14 121
M  ZZM  15 7
M  ZZI  15 81
M  ZZM  16 10
M  ZZI  16 211
M  ZZM  17 1
M  ZZI  17 113
M  ZZM  18 1
M  ZZI  18 111
M  ZZM  19 37
M  ZZI  19 124
M  ZZM  20 37
M  ZZI  20 125
M  ZZM  21 37
M  ZZI  21 125
M  ZZM  22 37
M  ZZI  22 124
M  ZZM  23 63
M  ZZI  23 104
M  ZZM  24 64
M  ZZI  24 105
M  ZZM  25 1
M  ZZI  25 111
M  ZZM  26 66
M  ZZI  26 222
M  ZZM  27 63
M  ZZI  27 104
M  ZZM  28 44
M  ZZI  28 248
M  ZZM  29 37
M  ZZI  29 125
M  ZZM  30 37
M  ZZI  30 125
M  ZZM  31 1
M  ZZI  31 112
M  ZZM  32 1
M  ZZI  32 113
M  ZZM  33 6
M  ZZI  33 60
M  ZZM  34 1
M  ZZI  34 112
M  ZZM  35 5
M  ZZI  35 1
M  ZZM  36 5
M  ZZI  36 1
M  ZZM  37 5
M  ZZI  37 1
M  ZZM  38 28
M  ZZI  38 11
M  ZZM  39 5
M  ZZI  39 1
M  ZZM  40 5
M  ZZI  40 1
M  ZZM  41 5
M  ZZI  41 1
M  ZZM  42 5
M  ZZI  42 1
M  ZZM  43 5
M  ZZI  43 1
M  ZZM  44 5
M  ZZI  44 1
M  ZZM  45 5
M  ZZI  45 1
M  ZZM  46 5
M  ZZI  46 1
M  ZZM  47 5
M  ZZI  47 1
M  ZZM  48 5
M  ZZI  48 1
M  ZZM  49 5
M  ZZI  49 1
M  ZZM  50 28
M  ZZI  50 11
M  ZZM  51 5
M  ZZI  51 1
M  ZZM  52 5
M  ZZI  52 1
M  ZZM  53 5
M  ZZI  53 1
M  ZZM  54 5
M  ZZI  54 1
M  ZZM  55 5
M  ZZI  55 1
M  ZZM  56 5
M  ZZI  56 1
M  ZZM  57 5
M  ZZI  57 1
M  ZZM  58 5
M  ZZI  58 1
M  ZZM  59 5
M  ZZI  59 1
M  ZZM  60 5
M  ZZI  60 1
M  ZZM  61 5
M  ZZI  61 1
M  ZZM  62 5
M  ZZI  62 1
M  ZZM  63 5
M  ZZI  63 1
M  ZZM  64 5
M  ZZI  64 1
M  ZZM  65 5
M  ZZI  65 1
M  ZZM  66 21
M  ZZI  66 20
M  ZZM  67 5
M  ZZI  67 1
M  ZZM  68 5
M  ZZI  68 1
M  END
> <IX>
1

> <NAME>
VHL_5EHR_2.pdb

> <Score>
-5.786283

> <Natom>
68

> <Nflex>
8

> <Hbond>
-3.919268

> <Hphob>
-6.473824

> <VwInt>
-21.476674

> <Dsolv>
17.223889

> <SolEl>
9.831744

> <Eintl>
9.561222

> <RecConf>
ND

> <projPath>
VHL_maps/

> <NAME_>
VHL_5EHR_2.pdb

$$$$
