VHL_5EU1_7.pdb
  MOLSOFT 04032206413D

 65 67  0  0  1  0  0  0  0  0999 V2000
   13.2519   -1.9041   -6.8747 O   0  0  0  0  0  0  0  0  0  0  0  0
   13.0239   -0.8105   -6.3868 C   0  0  0  0  0  0  0  0  0  0  0  0
   13.9297   -0.1003   -5.6354 N   0  0  0  0  0  0  0  0  0  0  0  0
   15.2672   -0.6146   -5.3312 C   0  0  1  0  0  0  0  0  0  0  0  0
   16.3337    0.5182   -5.3994 C   0  0  0  0  0  0  0  0  0  0  0  0
   16.3504    1.1084   -6.8217 C   0  0  0  0  0  0  0  0  0  0  0  0
   16.0686    1.6586   -4.4000 C   0  0  0  0  0  0  0  0  0  0  0  0
   17.7280   -0.0453   -5.1165 C   0  0  0  0  0  0  0  0  0  0  0  0
   15.1315   -1.3096   -3.9612 C   0  0  0  0  0  0  0  0  0  0  0  0
   14.5335   -0.7656   -3.0408 O   0  0  0  0  0  0  0  0  0  0  0  0
   15.6809   -2.5867   -3.8066 N   0  0  0  0  0  0  0  0  0  0  0  0
   15.4590   -3.3388   -2.5804 C   0  0  2  0  0  0  0  0  0  0  0  0
   16.4767   -2.9615   -1.4996 C   0  0  0  0  0  0  0  0  0  0  0  0
   17.5969   -2.5406   -1.7547 O   0  0  0  0  0  0  0  0  0  0  0  0
   16.0289   -3.1986   -0.2135 N   0  0  0  0  0  0  0  0  0  0  0  0
   16.8401   -2.8666    0.9423 C   0  0  0  0  0  0  0  0  0  0  0  0
   16.3567   -3.5589    2.1898 C   0  0  0  0  0  0  0  0  0  0  0  0
   15.2093   -3.1299    2.8498 C   0  0  0  0  0  0  0  0  0  0  0  0
   14.7457   -3.7954    3.9734 C   0  0  0  0  0  0  0  0  0  0  0  0
   15.4027   -4.9221    4.4624 C   0  0  0  0  0  0  0  0  0  0  0  0
   14.8938   -5.6536    5.6211 C   0  0  0  0  0  0  0  0  0  0  0  0
   13.6216   -6.1333    5.9228 C   0  0  0  0  0  0  0  0  0  0  0  0
   12.3906   -6.0405    5.0999 C   0  0  0  0  0  0  0  0  0  0  0  0
   13.5182   -6.7963    7.1300 N   0  0  0  0  0  0  0  0  0  0  0  0
   14.6860   -6.8181    7.7299 C   0  0  0  0  0  0  0  0  0  0  0  0
   15.9704   -6.0594    6.9048 S   0  0  0  0  0  0  0  0  0  0  0  0
   16.5594   -5.3371    3.8065 C   0  0  0  0  0  0  0  0  0  0  0  0
   17.0331   -4.6636    2.6946 C   0  0  0  0  0  0  0  0  0  0  0  0
   15.6174   -4.7880   -3.0019 C   0  0  0  0  0  0  0  0  0  0  0  0
   16.6554   -4.7381   -4.1128 C   0  0  1  0  0  0  0  0  0  0  0  0
   16.4543   -5.8070   -5.0406 O   0  0  0  0  0  0  0  0  0  0  0  0
   16.4584   -3.3676   -4.7603 C   0  0  0  0  0  0  0  0  0  0  0  0
   11.7059   -0.1133   -6.5395 C   0  0  0  0  0  0  0  0  0  0  0  0
   13.6100    0.7372   -5.1614 H   0  0  0  0  0  0  0  0  0  0  0  0
   15.5020   -1.3660   -6.0901 H   0  0  0  0  0  0  0  0  0  0  0  0
   16.5133    0.3318   -7.5771 H   0  0  0  0  0  0  0  0  0  0  0  0
   17.1476    1.8496   -6.9399 H   0  0  0  0  0  0  0  0  0  0  0  0
   15.4094    1.6101   -7.0689 H   0  0  0  0  0  0  0  0  0  0  0  0
   16.0926    1.3082   -3.3642 H   0  0  0  0  0  0  0  0  0  0  0  0
   15.1017    2.1419   -4.5677 H   0  0  0  0  0  0  0  0  0  0  0  0
   16.8297    2.4409   -4.4868 H   0  0  0  0  0  0  0  0  0  0  0  0
   17.9915   -0.8509   -5.8088 H   0  0  0  0  0  0  0  0  0  0  0  0
   17.7960   -0.4555   -4.1035 H   0  0  0  0  0  0  0  0  0  0  0  0
   18.4867    0.7373   -5.2018 H   0  0  0  0  0  0  0  0  0  0  0  0
   14.4491   -3.1442   -2.2004 H   0  0  0  0  0  0  0  0  0  0  0  0
   15.0801   -3.5218   -0.0598 H   0  0  0  0  0  0  0  0  0  0  0  0
   17.8835   -3.1267    0.7310 H   0  0  0  0  0  0  0  0  0  0  0  0
   16.8079   -1.7799    1.0752 H   0  0  0  0  0  0  0  0  0  0  0  0
   14.6610   -2.2652    2.4862 H   0  0  0  0  0  0  0  0  0  0  0  0
   13.8557   -3.4182    4.4671 H   0  0  0  0  0  0  0  0  0  0  0  0
   11.5040   -6.2765    5.6954 H   0  0  0  0  0  0  0  0  0  0  0  0
   12.4278   -6.7514    4.2713 H   0  0  0  0  0  0  0  0  0  0  0  0
   12.2453   -5.0393    4.6890 H   0  0  0  0  0  0  0  0  0  0  0  0
   14.8337   -7.2898    8.6910 H   0  0  0  0  0  0  0  0  0  0  0  0
   17.1032   -6.2137    4.1455 H   0  0  0  0  0  0  0  0  0  0  0  0
   17.9339   -5.0265    2.2072 H   0  0  0  0  0  0  0  0  0  0  0  0
   15.9211   -5.4520   -2.1879 H   0  0  0  0  0  0  0  0  0  0  0  0
   14.6693   -5.1753   -3.3880 H   0  0  0  0  0  0  0  0  0  0  0  0
   17.6670   -4.8222   -3.7069 H   0  0  0  0  0  0  0  0  0  0  0  0
   16.3758   -6.6349   -4.5315 H   0  0  0  0  0  0  0  0  0  0  0  0
   15.9568   -3.4120   -5.7283 H   0  0  0  0  0  0  0  0  0  0  0  0
   17.4217   -2.8758   -4.9157 H   0  0  0  0  0  0  0  0  0  0  0  0
   11.2335   -0.0030   -5.5601 H   0  0  0  0  0  0  0  0  0  0  0  0
   11.0528   -0.7010   -7.1884 H   0  0  0  0  0  0  0  0  0  0  0  0
   11.8591    0.8724   -6.9844 H   0  0  0  0  0  0  0  0  0  0  0  0
  1  2  2  0  0  0  0
  2  3  1  0  0  0  0
  2 33  1  0  0  0  0
  4  3  1  0  0  0  0
  3 34  1  0  0  0  0
  4  5  1  0  0  0  0
  4 35  1  0  0  0  0
  4  9  1  0  0  0  0
  5  6  1  0  0  0  0
  5  7  1  0  0  0  0
  5  8  1  0  0  0  0
  6 36  1  0  0  0  0
  6 37  1  0  0  0  0
  6 38  1  0  0  0  0
  7 39  1  0  0  0  0
  7 40  1  0  0  0  0
  7 41  1  0  0  0  0
  8 42  1  0  0  0  0
  8 43  1  0  0  0  0
  8 44  1  0  0  0  0
  9 10  2  0  0  0  0
  9 11  1  0  0  0  0
 11 32  1  0  0  0  0
 12 11  1  0  0  0  0
 12 29  1  0  0  0  0
 12 45  1  0  0  0  0
 12 13  1  0  0  0  0
 13 14  2  0  0  0  0
 13 15  1  0  0  0  0
 15 46  1  0  0  0  0
 15 16  1  0  0  0  0
 16 47  1  0  0  0  0
 16 48  1  0  0  0  0
 16 17  1  0  0  0  0
 17 18  1  0  0  0  0
 17 28  2  0  0  0  0
 18 49  1  0  0  0  0
 18 19  2  0  0  0  0
 19 50  1  0  0  0  0
 19 20  1  0  0  0  0
 20 27  2  0  0  0  0
 20 21  1  0  0  0  0
 21 22  2  0  0  0  0
 21 26  1  0  0  0  0
 22 23  1  0  0  0  0
 22 24  1  0  0  0  0
 23 51  1  0  0  0  0
 23 52  1  0  0  0  0
 23 53  1  0  0  0  0
 24 25  2  0  0  0  0
 25 54  1  0  0  0  0
 25 26  1  0  0  0  0
 27 55  1  0  0  0  0
 27 28  1  0  0  0  0
 28 56  1  0  0  0  0
 30 29  1  0  0  0  0
 29 57  1  0  0  0  0
 29 58  1  0  0  0  0
 30 32  1  0  0  0  0
 30 59  1  0  0  0  0
 30 31  1  0  0  0  0
 31 60  1  0  0  0  0
 32 61  1  0  0  0  0
 32 62  1  0  0  0  0
 33 63  1  0  0  0  0
 33 64  1  0  0  0  0
 33 65  1  0  0  0  0
M  ZZC   1 o1
M  ZZC   2 c1
M  ZZC   3 n1
M  ZZC   4 c2
M  ZZC   5 c3
M  ZZC   6 c4
M  ZZC   7 c5
M  ZZC   8 c6
M  ZZC   9 c7
M  ZZC  10 o2
M  ZZC  11 n2
M  ZZC  12 c8
M  ZZC  13 c9
M  ZZC  14 o3
M  ZZC  15 n3
M  ZZC  16 c10
M  ZZC  17 c11
M  ZZC  18 c12
M  ZZC  19 c13
M  ZZC  20 c14
M  ZZC  21 c15
M  ZZC  22 c16
M  ZZC  23 c17
M  ZZC  24 n4
M  ZZC  25 c18
M  ZZC  26 s1
M  ZZC  27 c19
M  ZZC  28 c20
M  ZZC  29 c21
M  ZZC  30 c22
M  ZZC  31 o4
M  ZZC  32 c23
M  ZZC  33 c24
M  ZZC  34 h11
M  ZZC  35 h21
M  ZZC  36 h41
M  ZZC  37 h42
M  ZZC  38 h43
M  ZZC  39 h51
M  ZZC  40 h52
M  ZZC  41 h53
M  ZZC  42 h61
M  ZZC  43 h62
M  ZZC  44 h63
M  ZZC  45 h81
M  ZZC  46 h31
M  ZZC  47 h101
M  ZZC  48 h102
M  ZZC  49 h121
M  ZZC  50 h131
M  ZZC  51 h171
M  ZZC  52 h172
M  ZZC  53 h173
M  ZZC  54 h181
M  ZZC  55 h191
M  ZZC  56 h201
M  ZZC  57 h211
M  ZZC  58 h212
M  ZZC  59 h221
M  ZZC  60 h01
M  ZZC  61 h231
M  ZZC  62 h232
M  ZZC  63 h241
M  ZZC  64 h242
M  ZZC  65 h243
M  ZZM   1 7
M  ZZI   1 81
M  ZZM   2 3
M  ZZI   2 121
M  ZZM   3 10
M  ZZI   3 211
M  ZZM   4 1
M  ZZI   4 113
M  ZZM   5 1
M  ZZI   5 110
M  ZZM   6 1
M  ZZI   6 111
M  ZZM   7 1
M  ZZI   7 111
M  ZZM   8 1
M  ZZI   8 111
M  ZZM   9 3
M  ZZI   9 121
M  ZZM  10 7
M  ZZI  10 81
M  ZZM  11 10
M  ZZI  11 192
M  ZZM  12 1
M  ZZI  12 113
M  ZZM  13 3
M  ZZI  13 121
M  ZZM  14 7
M  ZZI  14 81
M  ZZM  15 10
M  ZZI  15 211
M  ZZM  16 1
M  ZZI  16 112
M  ZZM  17 37
M  ZZI  17 124
M  ZZM  18 37
M  ZZI  18 125
M  ZZM  19 37
M  ZZI  19 125
M  ZZM  20 37
M  ZZI  20 124
M  ZZM  21 63
M  ZZI  21 104
M  ZZM  22 64
M  ZZI  22 105
M  ZZM  23 1
M  ZZI  23 111
M  ZZM  24 66
M  ZZI  24 222
M  ZZM  25 63
M  ZZI  25 104
M  ZZM  26 44
M  ZZI  26 248
M  ZZM  27 37
M  ZZI  27 125
M  ZZM  28 37
M  ZZI  28 125
M  ZZM  29 1
M  ZZI  29 112
M  ZZM  30 1
M  ZZI  30 113
M  ZZM  31 6
M  ZZI  31 60
M  ZZM  32 1
M  ZZI  32 112
M  ZZM  33 1
M  ZZI  33 111
M  ZZM  34 28
M  ZZI  34 11
M  ZZM  35 5
M  ZZI  35 1
M  ZZM  36 5
M  ZZI  36 1
M  ZZM  37 5
M  ZZI  37 1
M  ZZM  38 5
M  ZZI  38 1
M  ZZM  39 5
M  ZZI  39 1
M  ZZM  40 5
M  ZZI  40 1
M  ZZM  41 5
M  ZZI  41 1
M  ZZM  42 5
M  ZZI  42 1
M  ZZM  43 5
M  ZZI  43 1
M  ZZM  44 5
M  ZZI  44 1
M  ZZM  45 5
M  ZZI  45 1
M  ZZM  46 28
M  ZZI  46 11
M  ZZM  47 5
M  ZZI  47 1
M  ZZM  48 5
M  ZZI  48 1
M  ZZM  49 5
M  ZZI  49 1
M  ZZM  50 5
M  ZZI  50 1
M  ZZM  51 5
M  ZZI  51 1
M  ZZM  52 5
M  ZZI  52 1
M  ZZM  53 5
M  ZZI  53 1
M  ZZM  54 5
M  ZZI  54 1
M  ZZM  55 5
M  ZZI  55 1
M  ZZM  56 5
M  ZZI  56 1
M  ZZM  57 5
M  ZZI  57 1
M  ZZM  58 5
M  ZZI  58 1
M  ZZM  59 5
M  ZZI  59 1
M  ZZM  60 21
M  ZZI  60 20
M  ZZM  61 5
M  ZZI  61 1
M  ZZM  62 5
M  ZZI  62 1
M  ZZM  63 5
M  ZZI  63 1
M  ZZM  64 5
M  ZZI  64 1
M  ZZM  65 5
M  ZZI  65 1
M  END
> <IX>
1

> <NAME>
VHL_5EU1_7.pdb

> <Score>
-14.454694

> <Natom>
65

> <Nflex>
8

> <Hbond>
-3.017935

> <Hphob>
-6.214819

> <VwInt>
-27.961171

> <Dsolv>
16.83433

> <SolEl>
9.722024

> <Eintl>
2.439162

> <RecConf>
ND

> <projPath>
VHL_maps/

> <NAME_>
VHL_5EU1_7.pdb

$$$$
