VHL_5EU1_10.pdb
  MOLSOFT 04032206403D

 65 67  0  0  1  0  0  0  0  0999 V2000
   15.8097   -6.2542   -5.4818 O   0  0  0  0  0  0  0  0  0  0  0  0
   16.8858   -5.9374   -5.0050 C   0  0  0  0  0  0  0  0  0  0  0  0
   17.1313   -4.7745   -4.3016 N   0  0  0  0  0  0  0  0  0  0  0  0
   16.1462   -3.7068   -4.0627 C   0  0  1  0  0  0  0  0  0  0  0  0
   15.8396   -3.5262   -2.5472 C   0  0  0  0  0  0  0  0  0  0  0  0
   15.3403   -4.8681   -2.0014 C   0  0  0  0  0  0  0  0  0  0  0  0
   14.7278   -2.5031   -2.2888 C   0  0  0  0  0  0  0  0  0  0  0  0
   17.0712   -3.0775   -1.7478 C   0  0  0  0  0  0  0  0  0  0  0  0
   16.7347   -2.4807   -4.7846 C   0  0  0  0  0  0  0  0  0  0  0  0
   17.9414   -2.2688   -4.7748 O   0  0  0  0  0  0  0  0  0  0  0  0
   15.8645   -1.6345   -5.4750 N   0  0  0  0  0  0  0  0  0  0  0  0
   16.3913   -0.6559   -6.4099 C   0  0  2  0  0  0  0  0  0  0  0  0
   16.8464    0.6129   -5.6889 C   0  0  0  0  0  0  0  0  0  0  0  0
   16.3914    0.9609   -4.6075 O   0  0  0  0  0  0  0  0  0  0  0  0
   17.7808    1.3401   -6.4042 N   0  0  0  0  0  0  0  0  0  0  0  0
   18.3353    2.5843   -5.9078 C   0  0  0  0  0  0  0  0  0  0  0  0
   17.4361    3.7624   -6.1869 C   0  0  0  0  0  0  0  0  0  0  0  0
   16.4127    4.0975   -5.3052 C   0  0  0  0  0  0  0  0  0  0  0  0
   15.5584    5.1518   -5.5709 C   0  0  0  0  0  0  0  0  0  0  0  0
   15.7078    5.9067   -6.7275 C   0  0  0  0  0  0  0  0  0  0  0  0
   14.7979    7.0029   -7.0198 C   0  0  0  0  0  0  0  0  0  0  0  0
   13.8970    7.1643   -8.0617 C   0  0  0  0  0  0  0  0  0  0  0  0
   13.6229    6.1932   -9.1427 C   0  0  0  0  0  0  0  0  0  0  0  0
   13.1979    8.3543   -8.0515 N   0  0  0  0  0  0  0  0  0  0  0  0
   13.5615    9.0674   -7.0088 C   0  0  0  0  0  0  0  0  0  0  0  0
   14.7367    8.3741   -5.9853 S   0  0  0  0  0  0  0  0  0  0  0  0
   16.7344    5.5820   -7.6083 C   0  0  0  0  0  0  0  0  0  0  0  0
   17.5886    4.5240   -7.3408 C   0  0  0  0  0  0  0  0  0  0  0  0
   15.2375   -0.3956   -7.3644 C   0  0  0  0  0  0  0  0  0  0  0  0
   14.0010   -0.5658   -6.4976 C   0  0  1  0  0  0  0  0  0  0  0  0
   12.9117   -1.0591   -7.2747 O   0  0  0  0  0  0  0  0  0  0  0  0
   14.4139   -1.5808   -5.4401 C   0  0  0  0  0  0  0  0  0  0  0  0
   18.0851   -6.8359   -5.1226 C   0  0  0  0  0  0  0  0  0  0  0  0
   18.0887   -4.5924   -4.0222 H   0  0  0  0  0  0  0  0  0  0  0  0
   15.2234   -4.0023   -4.5597 H   0  0  0  0  0  0  0  0  0  0  0  0
   14.4577   -5.2210   -2.5445 H   0  0  0  0  0  0  0  0  0  0  0  0
   15.0625   -4.7829   -0.9490 H   0  0  0  0  0  0  0  0  0  0  0  0
   16.1009   -5.6468   -2.0824 H   0  0  0  0  0  0  0  0  0  0  0  0
   13.8172   -2.7553   -2.8407 H   0  0  0  0  0  0  0  0  0  0  0  0
   15.0398   -1.4907   -2.5594 H   0  0  0  0  0  0  0  0  0  0  0  0
   14.4555   -2.4685   -1.2287 H   0  0  0  0  0  0  0  0  0  0  0  0
   17.4256   -2.0918   -2.0651 H   0  0  0  0  0  0  0  0  0  0  0  0
   17.9000   -3.7736   -1.8580 H   0  0  0  0  0  0  0  0  0  0  0  0
   16.8504   -3.0123   -0.6774 H   0  0  0  0  0  0  0  0  0  0  0  0
   17.2492   -1.0768   -6.9396 H   0  0  0  0  0  0  0  0  0  0  0  0
   18.1543    0.9569   -7.2678 H   0  0  0  0  0  0  0  0  0  0  0  0
   18.5184    2.4918   -4.8314 H   0  0  0  0  0  0  0  0  0  0  0  0
   19.3101    2.7239   -6.3871 H   0  0  0  0  0  0  0  0  0  0  0  0
   16.2654    3.5247   -4.3943 H   0  0  0  0  0  0  0  0  0  0  0  0
   14.7599    5.3713   -4.8675 H   0  0  0  0  0  0  0  0  0  0  0  0
   14.4888    6.0935   -9.8022 H   0  0  0  0  0  0  0  0  0  0  0  0
   12.7727    6.5112   -9.7481 H   0  0  0  0  0  0  0  0  0  0  0  0
   13.3862    5.2070   -8.7322 H   0  0  0  0  0  0  0  0  0  0  0  0
   13.1466   10.0413   -6.7972 H   0  0  0  0  0  0  0  0  0  0  0  0
   16.8800    6.1619   -8.5160 H   0  0  0  0  0  0  0  0  0  0  0  0
   18.3838    4.2968   -8.0442 H   0  0  0  0  0  0  0  0  0  0  0  0
   15.2731    0.5919   -7.8366 H   0  0  0  0  0  0  0  0  0  0  0  0
   15.2362   -1.1374   -8.1716 H   0  0  0  0  0  0  0  0  0  0  0  0
   13.7145    0.3904   -6.0438 H   0  0  0  0  0  0  0  0  0  0  0  0
   12.0844   -0.7970   -6.8334 H   0  0  0  0  0  0  0  0  0  0  0  0
   13.9826   -2.5711   -5.5829 H   0  0  0  0  0  0  0  0  0  0  0  0
   14.0936   -1.2194   -4.4636 H   0  0  0  0  0  0  0  0  0  0  0  0
   17.9872   -7.4577   -6.0173 H   0  0  0  0  0  0  0  0  0  0  0  0
   18.1328   -7.4798   -4.2414 H   0  0  0  0  0  0  0  0  0  0  0  0
   19.0073   -6.2527   -5.2061 H   0  0  0  0  0  0  0  0  0  0  0  0
  1  2  2  0  0  0  0
  2  3  1  0  0  0  0
  2 33  1  0  0  0  0
  4  3  1  0  0  0  0
  3 34  1  0  0  0  0
  4  5  1  0  0  0  0
  4 35  1  0  0  0  0
  4  9  1  0  0  0  0
  5  6  1  0  0  0  0
  5  7  1  0  0  0  0
  5  8  1  0  0  0  0
  6 36  1  0  0  0  0
  6 37  1  0  0  0  0
  6 38  1  0  0  0  0
  7 39  1  0  0  0  0
  7 40  1  0  0  0  0
  7 41  1  0  0  0  0
  8 42  1  0  0  0  0
  8 43  1  0  0  0  0
  8 44  1  0  0  0  0
  9 10  2  0  0  0  0
  9 11  1  0  0  0  0
 11 32  1  0  0  0  0
 12 11  1  0  0  0  0
 12 29  1  0  0  0  0
 12 45  1  0  0  0  0
 12 13  1  0  0  0  0
 13 14  2  0  0  0  0
 13 15  1  0  0  0  0
 15 46  1  0  0  0  0
 15 16  1  0  0  0  0
 16 47  1  0  0  0  0
 16 48  1  0  0  0  0
 16 17  1  0  0  0  0
 17 18  1  0  0  0  0
 17 28  2  0  0  0  0
 18 49  1  0  0  0  0
 18 19  2  0  0  0  0
 19 50  1  0  0  0  0
 19 20  1  0  0  0  0
 20 27  2  0  0  0  0
 20 21  1  0  0  0  0
 21 22  2  0  0  0  0
 21 26  1  0  0  0  0
 22 23  1  0  0  0  0
 22 24  1  0  0  0  0
 23 51  1  0  0  0  0
 23 52  1  0  0  0  0
 23 53  1  0  0  0  0
 24 25  2  0  0  0  0
 25 54  1  0  0  0  0
 25 26  1  0  0  0  0
 27 55  1  0  0  0  0
 27 28  1  0  0  0  0
 28 56  1  0  0  0  0
 30 29  1  0  0  0  0
 29 57  1  0  0  0  0
 29 58  1  0  0  0  0
 30 32  1  0  0  0  0
 30 59  1  0  0  0  0
 30 31  1  0  0  0  0
 31 60  1  0  0  0  0
 32 61  1  0  0  0  0
 32 62  1  0  0  0  0
 33 63  1  0  0  0  0
 33 64  1  0  0  0  0
 33 65  1  0  0  0  0
M  ZZC   1 o1
M  ZZC   2 c1
M  ZZC   3 n1
M  ZZC   4 c2
M  ZZC   5 c3
M  ZZC   6 c4
M  ZZC   7 c5
M  ZZC   8 c6
M  ZZC   9 c7
M  ZZC  10 o2
M  ZZC  11 n2
M  ZZC  12 c8
M  ZZC  13 c9
M  ZZC  14 o3
M  ZZC  15 n3
M  ZZC  16 c10
M  ZZC  17 c11
M  ZZC  18 c12
M  ZZC  19 c13
M  ZZC  20 c14
M  ZZC  21 c15
M  ZZC  22 c16
M  ZZC  23 c17
M  ZZC  24 n4
M  ZZC  25 c18
M  ZZC  26 s1
M  ZZC  27 c19
M  ZZC  28 c20
M  ZZC  29 c21
M  ZZC  30 c22
M  ZZC  31 o4
M  ZZC  32 c23
M  ZZC  33 c24
M  ZZC  34 h11
M  ZZC  35 h21
M  ZZC  36 h41
M  ZZC  37 h42
M  ZZC  38 h43
M  ZZC  39 h51
M  ZZC  40 h52
M  ZZC  41 h53
M  ZZC  42 h61
M  ZZC  43 h62
M  ZZC  44 h63
M  ZZC  45 h81
M  ZZC  46 h31
M  ZZC  47 h101
M  ZZC  48 h102
M  ZZC  49 h121
M  ZZC  50 h131
M  ZZC  51 h171
M  ZZC  52 h172
M  ZZC  53 h173
M  ZZC  54 h181
M  ZZC  55 h191
M  ZZC  56 h201
M  ZZC  57 h211
M  ZZC  58 h212
M  ZZC  59 h221
M  ZZC  60 h01
M  ZZC  61 h231
M  ZZC  62 h232
M  ZZC  63 h241
M  ZZC  64 h242
M  ZZC  65 h243
M  ZZM   1 7
M  ZZI   1 81
M  ZZM   2 3
M  ZZI   2 121
M  ZZM   3 10
M  ZZI   3 211
M  ZZM   4 1
M  ZZI   4 113
M  ZZM   5 1
M  ZZI   5 110
M  ZZM   6 1
M  ZZI   6 111
M  ZZM   7 1
M  ZZI   7 111
M  ZZM   8 1
M  ZZI   8 111
M  ZZM   9 3
M  ZZI   9 121
M  ZZM  10 7
M  ZZI  10 81
M  ZZM  11 10
M  ZZI  11 192
M  ZZM  12 1
M  ZZI  12 113
M  ZZM  13 3
M  ZZI  13 121
M  ZZM  14 7
M  ZZI  14 81
M  ZZM  15 10
M  ZZI  15 211
M  ZZM  16 1
M  ZZI  16 112
M  ZZM  17 37
M  ZZI  17 124
M  ZZM  18 37
M  ZZI  18 125
M  ZZM  19 37
M  ZZI  19 125
M  ZZM  20 37
M  ZZI  20 124
M  ZZM  21 63
M  ZZI  21 104
M  ZZM  22 64
M  ZZI  22 105
M  ZZM  23 1
M  ZZI  23 111
M  ZZM  24 66
M  ZZI  24 222
M  ZZM  25 63
M  ZZI  25 104
M  ZZM  26 44
M  ZZI  26 248
M  ZZM  27 37
M  ZZI  27 125
M  ZZM  28 37
M  ZZI  28 125
M  ZZM  29 1
M  ZZI  29 112
M  ZZM  30 1
M  ZZI  30 113
M  ZZM  31 6
M  ZZI  31 60
M  ZZM  32 1
M  ZZI  32 112
M  ZZM  33 1
M  ZZI  33 111
M  ZZM  34 28
M  ZZI  34 11
M  ZZM  35 5
M  ZZI  35 1
M  ZZM  36 5
M  ZZI  36 1
M  ZZM  37 5
M  ZZI  37 1
M  ZZM  38 5
M  ZZI  38 1
M  ZZM  39 5
M  ZZI  39 1
M  ZZM  40 5
M  ZZI  40 1
M  ZZM  41 5
M  ZZI  41 1
M  ZZM  42 5
M  ZZI  42 1
M  ZZM  43 5
M  ZZI  43 1
M  ZZM  44 5
M  ZZI  44 1
M  ZZM  45 5
M  ZZI  45 1
M  ZZM  46 28
M  ZZI  46 11
M  ZZM  47 5
M  ZZI  47 1
M  ZZM  48 5
M  ZZI  48 1
M  ZZM  49 5
M  ZZI  49 1
M  ZZM  50 5
M  ZZI  50 1
M  ZZM  51 5
M  ZZI  51 1
M  ZZM  52 5
M  ZZI  52 1
M  ZZM  53 5
M  ZZI  53 1
M  ZZM  54 5
M  ZZI  54 1
M  ZZM  55 5
M  ZZI  55 1
M  ZZM  56 5
M  ZZI  56 1
M  ZZM  57 5
M  ZZI  57 1
M  ZZM  58 5
M  ZZI  58 1
M  ZZM  59 5
M  ZZI  59 1
M  ZZM  60 21
M  ZZI  60 20
M  ZZM  61 5
M  ZZI  61 1
M  ZZM  62 5
M  ZZI  62 1
M  ZZM  63 5
M  ZZI  63 1
M  ZZM  64 5
M  ZZI  64 1
M  ZZM  65 5
M  ZZI  65 1
M  END
> <IX>
1

> <NAME>
VHL_5EU1_10.pdb

> <Score>
-5.818792

> <Natom>
65

> <Nflex>
8

> <Hbond>
-5.06193

> <Hphob>
-6.624116

> <VwInt>
-28.096996

> <Dsolv>
22.275992

> <SolEl>
22.089797

> <Eintl>
5.727977

> <RecConf>
ND

> <projPath>
VHL_maps/

> <NAME_>
VHL_5EU1_10.pdb

$$$$
