VHL_6MX8_9.pdb
  MOLSOFT 04032206433D

 65 67  0  0  1  0  0  0  0  0999 V2000
   18.4178   -7.0436   -5.3797 C   0  0  0  0  0  0  0  0  0  0  0  0
   17.2378   -6.1124   -5.3417 C   0  0  0  0  0  0  0  0  0  0  0  0
   16.1418   -6.4744   -5.7393 O   0  0  0  0  0  0  0  0  0  0  0  0
   17.5254   -4.8711   -4.8067 N   0  0  0  0  0  0  0  0  0  0  0  0
   16.5477   -3.7843   -4.7015 C   0  0  1  0  0  0  0  0  0  0  0  0
   15.8955   -3.6699   -3.2833 C   0  0  0  0  0  0  0  0  0  0  0  0
   14.6401   -2.7852   -3.3398 C   0  0  0  0  0  0  0  0  0  0  0  0
   16.8598   -3.0712   -2.2469 C   0  0  0  0  0  0  0  0  0  0  0  0
   15.4524   -5.0461   -2.7656 C   0  0  0  0  0  0  0  0  0  0  0  0
   17.2481   -2.4854   -5.1410 C   0  0  0  0  0  0  0  0  0  0  0  0
   18.3941   -2.2360   -4.7960 O   0  0  0  0  0  0  0  0  0  0  0  0
   16.5122   -1.5517   -5.8711 N   0  0  0  0  0  0  0  0  0  0  0  0
   17.0463   -0.2193   -6.1204 C   0  0  2  0  0  0  0  0  0  0  0  0
   17.1038    0.6450   -4.8645 C   0  0  0  0  0  0  0  0  0  0  0  0
   16.3341    0.5150   -3.9221 O   0  0  0  0  0  0  0  0  0  0  0  0
   18.0356    1.6601   -4.9664 N   0  0  0  0  0  0  0  0  0  0  0  0
   18.0085    2.8048   -4.0831 C   0  0  0  0  0  0  0  0  0  0  0  0
   17.0898    3.8462   -4.6653 C   0  0  0  0  0  0  0  0  0  0  0  0
   15.7435    3.8854   -4.3152 C   0  0  0  0  0  0  0  0  0  0  0  0
   14.8684    4.7400   -4.9624 C   0  0  0  0  0  0  0  0  0  0  0  0
   15.3155    5.5777   -5.9790 C   0  0  0  0  0  0  0  0  0  0  0  0
   14.3808    6.4183   -6.7162 C   0  0  0  0  0  0  0  0  0  0  0  0
   13.3852    7.2884   -6.2843 C   0  0  0  0  0  0  0  0  0  0  0  0
   13.0083    7.6116   -4.8880 C   0  0  0  0  0  0  0  0  0  0  0  0
   12.6827    7.9142   -7.2940 N   0  0  0  0  0  0  0  0  0  0  0  0
   13.1183    7.4923   -8.4584 C   0  0  0  0  0  0  0  0  0  0  0  0
   14.3927    6.3680   -8.4364 S   0  0  0  0  0  0  0  0  0  0  0  0
   16.6702    5.5639   -6.3017 C   0  0  0  0  0  0  0  0  0  0  0  0
   17.5443    4.7085   -5.6564 C   0  0  0  0  0  0  0  0  0  0  0  0
   16.0818    0.4278   -7.1106 C   0  0  0  0  0  0  0  0  0  0  0  0
   15.4249   -0.7488   -7.8017 C   0  0  1  0  0  0  0  0  0  0  0  0
   16.2192   -1.1736   -8.9183 O   0  0  0  0  0  0  0  0  0  0  0  0
   15.3745   -1.8252   -6.7254 C   0  0  0  0  0  0  0  0  0  0  0  0
   19.3617   -6.5081   -5.2431 H   0  0  0  0  0  0  0  0  0  0  0  0
   18.4465   -7.5441   -6.3509 H   0  0  0  0  0  0  0  0  0  0  0  0
   18.3050   -7.7902   -4.5904 H   0  0  0  0  0  0  0  0  0  0  0  0
   18.4699   -4.6895   -4.4884 H   0  0  0  0  0  0  0  0  0  0  0  0
   15.7804   -4.0172   -5.4270 H   0  0  0  0  0  0  0  0  0  0  0  0
   14.8870   -1.7576   -3.6252 H   0  0  0  0  0  0  0  0  0  0  0  0
   14.1399   -2.7383   -2.3676 H   0  0  0  0  0  0  0  0  0  0  0  0
   13.9133   -3.1470   -4.0704 H   0  0  0  0  0  0  0  0  0  0  0  0
   16.4263   -3.0893   -1.2416 H   0  0  0  0  0  0  0  0  0  0  0  0
   17.1044   -2.0275   -2.4652 H   0  0  0  0  0  0  0  0  0  0  0  0
   17.7981   -3.6271   -2.2034 H   0  0  0  0  0  0  0  0  0  0  0  0
   14.9664   -4.9617   -1.7931 H   0  0  0  0  0  0  0  0  0  0  0  0
   16.3038   -5.7223   -2.6396 H   0  0  0  0  0  0  0  0  0  0  0  0
   14.7563   -5.5399   -3.4486 H   0  0  0  0  0  0  0  0  0  0  0  0
   18.0496   -0.3188   -6.5394 H   0  0  0  0  0  0  0  0  0  0  0  0
   18.6702    1.6873   -5.7570 H   0  0  0  0  0  0  0  0  0  0  0  0
   17.6771    2.5022   -3.0837 H   0  0  0  0  0  0  0  0  0  0  0  0
   19.0302    3.1887   -3.9938 H   0  0  0  0  0  0  0  0  0  0  0  0
   15.3555    3.2111   -3.5565 H   0  0  0  0  0  0  0  0  0  0  0  0
   13.8168    4.7148   -4.6912 H   0  0  0  0  0  0  0  0  0  0  0  0
   12.2417    6.9189   -4.5281 H   0  0  0  0  0  0  0  0  0  0  0  0
   12.6018    8.6238   -4.8215 H   0  0  0  0  0  0  0  0  0  0  0  0
   13.8674    7.5598   -4.2134 H   0  0  0  0  0  0  0  0  0  0  0  0
   12.6981    7.8261   -9.3913 H   0  0  0  0  0  0  0  0  0  0  0  0
   17.0613    6.2127   -7.0802 H   0  0  0  0  0  0  0  0  0  0  0  0
   18.5876    4.6956   -5.9585 H   0  0  0  0  0  0  0  0  0  0  0  0
   15.3220    1.0203   -6.5877 H   0  0  0  0  0  0  0  0  0  0  0  0
   16.6058    1.0923   -7.8060 H   0  0  0  0  0  0  0  0  0  0  0  0
   14.4295   -0.4993   -8.1717 H   0  0  0  0  0  0  0  0  0  0  0  0
   17.1556   -1.0925   -8.6588 H   0  0  0  0  0  0  0  0  0  0  0  0
   15.4433   -2.8306   -7.1472 H   0  0  0  0  0  0  0  0  0  0  0  0
   14.4717   -1.7318   -6.1140 H   0  0  0  0  0  0  0  0  0  0  0  0
  1 34  1  0  0  0  0
  1 35  1  0  0  0  0
  1 36  1  0  0  0  0
  1  2  1  0  0  0  0
  2  3  2  0  0  0  0
  2  4  1  0  0  0  0
  4 37  1  0  0  0  0
  5  4  1  0  0  0  0
  5 38  1  0  0  0  0
  5  6  1  0  0  0  0
  5 10  1  0  0  0  0
  6  7  1  0  0  0  0
  6  8  1  0  0  0  0
  6  9  1  0  0  0  0
  7 39  1  0  0  0  0
  7 40  1  0  0  0  0
  7 41  1  0  0  0  0
  8 42  1  0  0  0  0
  8 43  1  0  0  0  0
  8 44  1  0  0  0  0
  9 45  1  0  0  0  0
  9 46  1  0  0  0  0
  9 47  1  0  0  0  0
 10 11  2  0  0  0  0
 10 12  1  0  0  0  0
 12 33  1  0  0  0  0
 13 12  1  0  0  0  0
 13 30  1  0  0  0  0
 13 48  1  0  0  0  0
 13 14  1  0  0  0  0
 14 15  2  0  0  0  0
 14 16  1  0  0  0  0
 16 49  1  0  0  0  0
 16 17  1  0  0  0  0
 17 50  1  0  0  0  0
 17 51  1  0  0  0  0
 17 18  1  0  0  0  0
 18 19  1  0  0  0  0
 18 29  2  0  0  0  0
 19 52  1  0  0  0  0
 19 20  2  0  0  0  0
 20 53  1  0  0  0  0
 20 21  1  0  0  0  0
 21 28  2  0  0  0  0
 21 22  1  0  0  0  0
 22 23  2  0  0  0  0
 22 27  1  0  0  0  0
 23 24  1  0  0  0  0
 23 25  1  0  0  0  0
 24 54  1  0  0  0  0
 24 55  1  0  0  0  0
 24 56  1  0  0  0  0
 25 26  2  0  0  0  0
 26 57  1  0  0  0  0
 26 27  1  0  0  0  0
 28 58  1  0  0  0  0
 28 29  1  0  0  0  0
 29 59  1  0  0  0  0
 31 30  1  0  0  0  0
 30 60  1  0  0  0  0
 30 61  1  0  0  0  0
 31 33  1  0  0  0  0
 31 62  1  0  0  0  0
 31 32  1  0  0  0  0
 32 63  1  0  0  0  0
 33 64  1  0  0  0  0
 33 65  1  0  0  0  0
M  ZZC   1 c1
M  ZZC   2 c2
M  ZZC   3 o1
M  ZZC   4 n1
M  ZZC   5 c3
M  ZZC   6 c4
M  ZZC   7 c5
M  ZZC   8 c6
M  ZZC   9 c7
M  ZZC  10 c8
M  ZZC  11 o2
M  ZZC  12 n2
M  ZZC  13 c9
M  ZZC  14 c10
M  ZZC  15 o3
M  ZZC  16 n3
M  ZZC  17 c11
M  ZZC  18 c12
M  ZZC  19 c13
M  ZZC  20 c14
M  ZZC  21 c15
M  ZZC  22 c16
M  ZZC  23 c17
M  ZZC  24 c18
M  ZZC  25 n4
M  ZZC  26 c19
M  ZZC  27 s1
M  ZZC  28 c20
M  ZZC  29 c21
M  ZZC  30 c22
M  ZZC  31 c23
M  ZZC  32 o4
M  ZZC  33 c24
M  ZZC  34 h11
M  ZZC  35 h12
M  ZZC  36 h13
M  ZZC  37 h01
M  ZZC  38 h31
M  ZZC  39 h51
M  ZZC  40 h52
M  ZZC  41 h53
M  ZZC  42 h61
M  ZZC  43 h62
M  ZZC  44 h63
M  ZZC  45 h71
M  ZZC  46 h72
M  ZZC  47 h73
M  ZZC  48 h91
M  ZZC  49 h02
M  ZZC  50 h111
M  ZZC  51 h112
M  ZZC  52 h131
M  ZZC  53 h141
M  ZZC  54 h181
M  ZZC  55 h182
M  ZZC  56 h183
M  ZZC  57 h191
M  ZZC  58 h201
M  ZZC  59 h211
M  ZZC  60 h221
M  ZZC  61 h222
M  ZZC  62 h231
M  ZZC  63 h41
M  ZZC  64 h241
M  ZZC  65 h242
M  ZZM   1 1
M  ZZI   1 111
M  ZZM   2 3
M  ZZI   2 121
M  ZZM   3 7
M  ZZI   3 81
M  ZZM   4 10
M  ZZI   4 211
M  ZZM   5 1
M  ZZI   5 113
M  ZZM   6 1
M  ZZI   6 110
M  ZZM   7 1
M  ZZI   7 111
M  ZZM   8 1
M  ZZI   8 111
M  ZZM   9 1
M  ZZI   9 111
M  ZZM  10 3
M  ZZI  10 121
M  ZZM  11 7
M  ZZI  11 81
M  ZZM  12 10
M  ZZI  12 192
M  ZZM  13 1
M  ZZI  13 113
M  ZZM  14 3
M  ZZI  14 121
M  ZZM  15 7
M  ZZI  15 81
M  ZZM  16 10
M  ZZI  16 211
M  ZZM  17 1
M  ZZI  17 112
M  ZZM  18 37
M  ZZI  18 124
M  ZZM  19 37
M  ZZI  19 125
M  ZZM  20 37
M  ZZI  20 125
M  ZZM  21 37
M  ZZI  21 124
M  ZZM  22 63
M  ZZI  22 104
M  ZZM  23 64
M  ZZI  23 105
M  ZZM  24 1
M  ZZI  24 111
M  ZZM  25 66
M  ZZI  25 222
M  ZZM  26 63
M  ZZI  26 104
M  ZZM  27 44
M  ZZI  27 248
M  ZZM  28 37
M  ZZI  28 125
M  ZZM  29 37
M  ZZI  29 125
M  ZZM  30 1
M  ZZI  30 112
M  ZZM  31 1
M  ZZI  31 113
M  ZZM  32 6
M  ZZI  32 60
M  ZZM  33 1
M  ZZI  33 112
M  ZZM  34 5
M  ZZI  34 1
M  ZZM  35 5
M  ZZI  35 1
M  ZZM  36 5
M  ZZI  36 1
M  ZZM  37 28
M  ZZI  37 11
M  ZZM  38 5
M  ZZI  38 1
M  ZZM  39 5
M  ZZI  39 1
M  ZZM  40 5
M  ZZI  40 1
M  ZZM  41 5
M  ZZI  41 1
M  ZZM  42 5
M  ZZI  42 1
M  ZZM  43 5
M  ZZI  43 1
M  ZZM  44 5
M  ZZI  44 1
M  ZZM  45 5
M  ZZI  45 1
M  ZZM  46 5
M  ZZI  46 1
M  ZZM  47 5
M  ZZI  47 1
M  ZZM  48 5
M  ZZI  48 1
M  ZZM  49 28
M  ZZI  49 11
M  ZZM  50 5
M  ZZI  50 1
M  ZZM  51 5
M  ZZI  51 1
M  ZZM  52 5
M  ZZI  52 1
M  ZZM  53 5
M  ZZI  53 1
M  ZZM  54 5
M  ZZI  54 1
M  ZZM  55 5
M  ZZI  55 1
M  ZZM  56 5
M  ZZI  56 1
M  ZZM  57 5
M  ZZI  57 1
M  ZZM  58 5
M  ZZI  58 1
M  ZZM  59 5
M  ZZI  59 1
M  ZZM  60 5
M  ZZI  60 1
M  ZZM  61 5
M  ZZI  61 1
M  ZZM  62 5
M  ZZI  62 1
M  ZZM  63 21
M  ZZI  63 20
M  ZZM  64 5
M  ZZI  64 1
M  ZZM  65 5
M  ZZI  65 1
M  END
> <IX>
1

> <NAME>
VHL_6MX8_9.pdb

> <Score>
-25.473727

> <Natom>
65

> <Nflex>
8

> <Hbond>
-8.011733

> <Hphob>
-6.536244

> <VwInt>
-29.667554

> <Dsolv>
20.312065

> <SolEl>
8.490328

> <Eintl>
5.341885

> <RecConf>
ND

> <projPath>
VHL_maps/

> <NAME_>
VHL_6MX8_9.pdb

$$$$
