VHL_6W8L_14.pdb
  MOLSOFT 04032206423D

 65 67  0  0  1  0  0  0  0  0999 V2000
   11.7112   -0.1131   -6.5465 C   0  0  0  0  0  0  0  0  0  0  0  0
   13.0331   -0.8049   -6.3926 C   0  0  0  0  0  0  0  0  0  0  0  0
   13.2464   -1.9053   -6.8714 O   0  0  0  0  0  0  0  0  0  0  0  0
   13.9402   -0.0829   -5.6561 N   0  0  0  0  0  0  0  0  0  0  0  0
   15.2778   -0.5942   -5.3485 C   0  0  1  0  0  0  0  0  0  0  0  0
   16.3448    0.5376   -5.4220 C   0  0  0  0  0  0  0  0  0  0  0  0
   16.3645    1.1185   -6.8481 C   0  0  0  0  0  0  0  0  0  0  0  0
   16.0784    1.6852   -4.4313 C   0  0  0  0  0  0  0  0  0  0  0  0
   17.7379   -0.0253   -5.1322 C   0  0  0  0  0  0  0  0  0  0  0  0
   15.1419   -1.2823   -3.9748 C   0  0  0  0  0  0  0  0  0  0  0  0
   14.5484   -0.7314   -3.0554 O   0  0  0  0  0  0  0  0  0  0  0  0
   15.6814   -2.5633   -3.8175 N   0  0  0  0  0  0  0  0  0  0  0  0
   15.4580   -3.3102   -2.5880 C   0  0  2  0  0  0  0  0  0  0  0  0
   16.4744   -2.9304   -1.5067 C   0  0  0  0  0  0  0  0  0  0  0  0
   17.5844   -2.4827   -1.7605 O   0  0  0  0  0  0  0  0  0  0  0  0
   16.0407   -3.2015   -0.2225 N   0  0  0  0  0  0  0  0  0  0  0  0
   16.8584   -2.8814    0.9321 C   0  0  0  0  0  0  0  0  0  0  0  0
   16.3703   -3.5697    2.1801 C   0  0  0  0  0  0  0  0  0  0  0  0
   17.0515   -4.6661    2.6964 C   0  0  0  0  0  0  0  0  0  0  0  0
   16.5756   -5.3351    3.8100 C   0  0  0  0  0  0  0  0  0  0  0  0
   15.4120   -4.9243    4.4566 C   0  0  0  0  0  0  0  0  0  0  0  0
   14.9012   -5.6536    5.6164 C   0  0  0  0  0  0  0  0  0  0  0  0
   13.6274   -6.1282    5.9217 C   0  0  0  0  0  0  0  0  0  0  0  0
   12.3962   -6.0416    5.0983 C   0  0  0  0  0  0  0  0  0  0  0  0
   13.5227   -6.7843    7.1327 N   0  0  0  0  0  0  0  0  0  0  0  0
   14.6902   -6.8055    7.7328 C   0  0  0  0  0  0  0  0  0  0  0  0
   15.9762   -6.0560    6.9022 S   0  0  0  0  0  0  0  0  0  0  0  0
   14.7476   -3.8085    3.9524 C   0  0  0  0  0  0  0  0  0  0  0  0
   15.2155   -3.1450    2.8294 C   0  0  0  0  0  0  0  0  0  0  0  0
   15.6147   -4.7618   -3.0019 C   0  0  0  0  0  0  0  0  0  0  0  0
   16.6542   -4.7175   -4.1117 C   0  0  1  0  0  0  0  0  0  0  0  0
   16.4569   -5.7925   -5.0333 O   0  0  0  0  0  0  0  0  0  0  0  0
   16.4558   -3.3512   -4.7679 C   0  0  0  0  0  0  0  0  0  0  0  0
   11.8592    0.8722   -6.9939 H   0  0  0  0  0  0  0  0  0  0  0  0
   11.2385   -0.0029   -5.5671 H   0  0  0  0  0  0  0  0  0  0  0  0
   11.0599   -0.7043   -7.1941 H   0  0  0  0  0  0  0  0  0  0  0  0
   13.6237    0.7646   -5.1982 H   0  0  0  0  0  0  0  0  0  0  0  0
   15.5130   -1.3493   -6.1039 H   0  0  0  0  0  0  0  0  0  0  0  0
   17.1559    1.8660   -6.9657 H   0  0  0  0  0  0  0  0  0  0  0  0
   15.4207    1.6102   -7.1044 H   0  0  0  0  0  0  0  0  0  0  0  0
   16.5404    0.3387   -7.5972 H   0  0  0  0  0  0  0  0  0  0  0  0
   16.8410    2.4659   -4.5201 H   0  0  0  0  0  0  0  0  0  0  0  0
   16.0994    1.3413   -3.3932 H   0  0  0  0  0  0  0  0  0  0  0  0
   15.1121    2.1679   -4.6038 H   0  0  0  0  0  0  0  0  0  0  0  0
   17.8033   -0.4249   -4.1148 H   0  0  0  0  0  0  0  0  0  0  0  0
   18.4979    0.7552   -5.2240 H   0  0  0  0  0  0  0  0  0  0  0  0
   18.0005   -0.8393   -5.8149 H   0  0  0  0  0  0  0  0  0  0  0  0
   14.4488   -3.1115   -2.2080 H   0  0  0  0  0  0  0  0  0  0  0  0
   15.0996   -3.5459   -0.0675 H   0  0  0  0  0  0  0  0  0  0  0  0
   17.8981   -3.1523    0.7162 H   0  0  0  0  0  0  0  0  0  0  0  0
   16.8383   -1.7947    1.0681 H   0  0  0  0  0  0  0  0  0  0  0  0
   17.9570   -5.0270    2.2164 H   0  0  0  0  0  0  0  0  0  0  0  0
   17.1237   -6.2055    4.1580 H   0  0  0  0  0  0  0  0  0  0  0  0
   11.5084   -6.2571    5.6996 H   0  0  0  0  0  0  0  0  0  0  0  0
   12.4267   -6.7706    4.2853 H   0  0  0  0  0  0  0  0  0  0  0  0
   12.2575   -5.0484    4.6665 H   0  0  0  0  0  0  0  0  0  0  0  0
   14.8362   -7.2700    8.6976 H   0  0  0  0  0  0  0  0  0  0  0  0
   13.8526   -3.4330    4.4380 H   0  0  0  0  0  0  0  0  0  0  0  0
   14.6653   -2.2847    2.4583 H   0  0  0  0  0  0  0  0  0  0  0  0
   15.9166   -5.4236   -2.1853 H   0  0  0  0  0  0  0  0  0  0  0  0
   14.6667   -5.1498   -3.3879 H   0  0  0  0  0  0  0  0  0  0  0  0
   17.6651   -4.7964   -3.7027 H   0  0  0  0  0  0  0  0  0  0  0  0
   16.3786   -6.6178   -4.5199 H   0  0  0  0  0  0  0  0  0  0  0  0
   15.9505   -3.4010   -5.7336 H   0  0  0  0  0  0  0  0  0  0  0  0
   17.4184   -2.8602   -4.9303 H   0  0  0  0  0  0  0  0  0  0  0  0
  1 34  1  0  0  0  0
  1 35  1  0  0  0  0
  1 36  1  0  0  0  0
  1  2  1  0  0  0  0
  2  3  2  0  0  0  0
  2  4  1  0  0  0  0
  4 37  1  0  0  0  0
  5  4  1  0  0  0  0
  5 38  1  0  0  0  0
  5  6  1  0  0  0  0
  5 10  1  0  0  0  0
  6  7  1  0  0  0  0
  6  8  1  0  0  0  0
  6  9  1  0  0  0  0
  7 39  1  0  0  0  0
  7 40  1  0  0  0  0
  7 41  1  0  0  0  0
  8 42  1  0  0  0  0
  8 43  1  0  0  0  0
  8 44  1  0  0  0  0
  9 45  1  0  0  0  0
  9 46  1  0  0  0  0
  9 47  1  0  0  0  0
 10 11  2  0  0  0  0
 10 12  1  0  0  0  0
 12 33  1  0  0  0  0
 13 12  1  0  0  0  0
 13 30  1  0  0  0  0
 13 48  1  0  0  0  0
 13 14  1  0  0  0  0
 14 15  2  0  0  0  0
 14 16  1  0  0  0  0
 16 49  1  0  0  0  0
 16 17  1  0  0  0  0
 17 50  1  0  0  0  0
 17 51  1  0  0  0  0
 17 18  1  0  0  0  0
 18 19  1  0  0  0  0
 18 29  2  0  0  0  0
 19 52  1  0  0  0  0
 19 20  2  0  0  0  0
 20 53  1  0  0  0  0
 20 21  1  0  0  0  0
 21 28  2  0  0  0  0
 21 22  1  0  0  0  0
 22 23  2  0  0  0  0
 22 27  1  0  0  0  0
 23 24  1  0  0  0  0
 23 25  1  0  0  0  0
 24 54  1  0  0  0  0
 24 55  1  0  0  0  0
 24 56  1  0  0  0  0
 25 26  2  0  0  0  0
 26 57  1  0  0  0  0
 26 27  1  0  0  0  0
 28 58  1  0  0  0  0
 28 29  1  0  0  0  0
 29 59  1  0  0  0  0
 31 30  1  0  0  0  0
 30 60  1  0  0  0  0
 30 61  1  0  0  0  0
 31 33  1  0  0  0  0
 31 62  1  0  0  0  0
 31 32  1  0  0  0  0
 32 63  1  0  0  0  0
 33 64  1  0  0  0  0
 33 65  1  0  0  0  0
M  ZZC   1 c1
M  ZZC   2 c2
M  ZZC   3 o1
M  ZZC   4 n1
M  ZZC   5 c3
M  ZZC   6 c4
M  ZZC   7 c5
M  ZZC   8 c6
M  ZZC   9 c7
M  ZZC  10 c8
M  ZZC  11 o2
M  ZZC  12 n2
M  ZZC  13 c9
M  ZZC  14 c10
M  ZZC  15 o3
M  ZZC  16 n3
M  ZZC  17 c11
M  ZZC  18 c12
M  ZZC  19 c13
M  ZZC  20 c14
M  ZZC  21 c15
M  ZZC  22 c16
M  ZZC  23 c17
M  ZZC  24 c18
M  ZZC  25 n4
M  ZZC  26 c19
M  ZZC  27 s1
M  ZZC  28 c20
M  ZZC  29 c21
M  ZZC  30 c22
M  ZZC  31 c23
M  ZZC  32 o4
M  ZZC  33 c24
M  ZZC  34 h11
M  ZZC  35 h12
M  ZZC  36 h13
M  ZZC  37 h01
M  ZZC  38 h31
M  ZZC  39 h51
M  ZZC  40 h52
M  ZZC  41 h53
M  ZZC  42 h61
M  ZZC  43 h62
M  ZZC  44 h63
M  ZZC  45 h71
M  ZZC  46 h72
M  ZZC  47 h73
M  ZZC  48 h91
M  ZZC  49 h02
M  ZZC  50 h111
M  ZZC  51 h112
M  ZZC  52 h131
M  ZZC  53 h141
M  ZZC  54 h181
M  ZZC  55 h182
M  ZZC  56 h183
M  ZZC  57 h191
M  ZZC  58 h201
M  ZZC  59 h211
M  ZZC  60 h221
M  ZZC  61 h222
M  ZZC  62 h231
M  ZZC  63 h41
M  ZZC  64 h241
M  ZZC  65 h242
M  ZZM   1 1
M  ZZI   1 111
M  ZZM   2 3
M  ZZI   2 121
M  ZZM   3 7
M  ZZI   3 81
M  ZZM   4 10
M  ZZI   4 211
M  ZZM   5 1
M  ZZI   5 113
M  ZZM   6 1
M  ZZI   6 110
M  ZZM   7 1
M  ZZI   7 111
M  ZZM   8 1
M  ZZI   8 111
M  ZZM   9 1
M  ZZI   9 111
M  ZZM  10 3
M  ZZI  10 121
M  ZZM  11 7
M  ZZI  11 81
M  ZZM  12 10
M  ZZI  12 192
M  ZZM  13 1
M  ZZI  13 113
M  ZZM  14 3
M  ZZI  14 121
M  ZZM  15 7
M  ZZI  15 81
M  ZZM  16 10
M  ZZI  16 211
M  ZZM  17 1
M  ZZI  17 112
M  ZZM  18 37
M  ZZI  18 124
M  ZZM  19 37
M  ZZI  19 125
M  ZZM  20 37
M  ZZI  20 125
M  ZZM  21 37
M  ZZI  21 124
M  ZZM  22 63
M  ZZI  22 104
M  ZZM  23 64
M  ZZI  23 105
M  ZZM  24 1
M  ZZI  24 111
M  ZZM  25 66
M  ZZI  25 222
M  ZZM  26 63
M  ZZI  26 104
M  ZZM  27 44
M  ZZI  27 248
M  ZZM  28 37
M  ZZI  28 125
M  ZZM  29 37
M  ZZI  29 125
M  ZZM  30 1
M  ZZI  30 112
M  ZZM  31 1
M  ZZI  31 113
M  ZZM  32 6
M  ZZI  32 60
M  ZZM  33 1
M  ZZI  33 112
M  ZZM  34 5
M  ZZI  34 1
M  ZZM  35 5
M  ZZI  35 1
M  ZZM  36 5
M  ZZI  36 1
M  ZZM  37 28
M  ZZI  37 11
M  ZZM  38 5
M  ZZI  38 1
M  ZZM  39 5
M  ZZI  39 1
M  ZZM  40 5
M  ZZI  40 1
M  ZZM  41 5
M  ZZI  41 1
M  ZZM  42 5
M  ZZI  42 1
M  ZZM  43 5
M  ZZI  43 1
M  ZZM  44 5
M  ZZI  44 1
M  ZZM  45 5
M  ZZI  45 1
M  ZZM  46 5
M  ZZI  46 1
M  ZZM  47 5
M  ZZI  47 1
M  ZZM  48 5
M  ZZI  48 1
M  ZZM  49 28
M  ZZI  49 11
M  ZZM  50 5
M  ZZI  50 1
M  ZZM  51 5
M  ZZI  51 1
M  ZZM  52 5
M  ZZI  52 1
M  ZZM  53 5
M  ZZI  53 1
M  ZZM  54 5
M  ZZI  54 1
M  ZZM  55 5
M  ZZI  55 1
M  ZZM  56 5
M  ZZI  56 1
M  ZZM  57 5
M  ZZI  57 1
M  ZZM  58 5
M  ZZI  58 1
M  ZZM  59 5
M  ZZI  59 1
M  ZZM  60 5
M  ZZI  60 1
M  ZZM  61 5
M  ZZI  61 1
M  ZZM  62 5
M  ZZI  62 1
M  ZZM  63 21
M  ZZI  63 20
M  ZZM  64 5
M  ZZI  64 1
M  ZZM  65 5
M  ZZI  65 1
M  END
> <IX>
1

> <NAME>
VHL_6W8L_14.pdb

> <Score>
-14.110567

> <Natom>
65

> <Nflex>
8

> <Hbond>
-3.003755

> <Hphob>
-6.131254

> <VwInt>
-27.991822

> <Dsolv>
16.995446

> <SolEl>
9.872349

> <Eintl>
2.543935

> <RecConf>
ND

> <projPath>
VHL_maps/

> <NAME_>
VHL_6W8L_14.pdb

$$$$
