VHL_3K6P_3.pdb
  MOLSOFT 04032206373D

 61 63  0  0  1  0  0  0  0  0999 V2000
    3.6310    1.4926  -17.4507 N   0  3  0  0  0  0  0  0  0  0  0  0
    4.3510    0.2595  -16.9449 C   0  0  1  0  0  0  0  0  0  0  0  0
    3.6792   -1.0284  -17.5239 C   0  0  0  0  0  0  0  0  0  0  0  0
    4.3018   -2.2888  -16.9014 C   0  0  0  0  0  0  0  0  0  0  0  0
    2.1769   -1.0473  -17.1899 C   0  0  0  0  0  0  0  0  0  0  0  0
    3.8241   -1.1300  -19.0534 C   0  0  0  0  0  0  0  0  0  0  0  0
    5.8476    0.3857  -17.2817 C   0  0  0  0  0  0  0  0  0  0  0  0
    6.1893    0.8297  -18.3696 O   0  0  0  0  0  0  0  0  0  0  0  0
    6.7861    0.0226  -16.3111 N   0  0  0  0  0  0  0  0  0  0  0  0
    8.2123    0.1880  -16.5647 C   0  0  2  0  0  0  0  0  0  0  0  0
    8.8406   -0.9329  -17.3955 C   0  0  0  0  0  0  0  0  0  0  0  0
    8.3458   -2.0465  -17.4988 O   0  0  0  0  0  0  0  0  0  0  0  0
   10.0392   -0.5561  -17.9788 N   0  0  0  0  0  0  0  0  0  0  0  0
   10.7850   -1.4075  -18.8833 C   0  0  0  0  0  0  0  0  0  0  0  0
   12.1772   -1.7491  -18.4082 C   0  0  0  0  0  0  0  0  0  0  0  0
   12.9895   -2.5355  -19.2206 C   0  0  0  0  0  0  0  0  0  0  0  0
   14.2566   -2.9191  -18.8153 C   0  0  0  0  0  0  0  0  0  0  0  0
   14.7506   -2.5210  -17.5803 C   0  0  0  0  0  0  0  0  0  0  0  0
   16.0441   -2.9791  -17.0994 C   0  0  0  0  0  0  0  0  0  0  0  0
   16.3427   -3.7967  -16.0220 C   0  0  0  0  0  0  0  0  0  0  0  0
   15.3659   -4.5087  -15.1791 C   0  0  0  0  0  0  0  0  0  0  0  0
   17.6842   -3.9486  -15.7454 N   0  0  0  0  0  0  0  0  0  0  0  0
   18.3866   -3.3476  -16.6812 C   0  0  0  0  0  0  0  0  0  0  0  0
   17.4996   -2.5259  -17.8917 S   0  0  0  0  0  0  0  0  0  0  0  0
   13.9562   -1.7126  -16.7757 C   0  0  0  0  0  0  0  0  0  0  0  0
   12.6902   -1.3302  -17.1820 C   0  0  0  0  0  0  0  0  0  0  0  0
    8.8446    0.2592  -15.1849 C   0  0  0  0  0  0  0  0  0  0  0  0
    7.9407   -0.6240  -14.3622 C   0  0  1  0  0  0  0  0  0  0  0  0
    8.0515   -0.3003  -12.9811 O   0  0  0  0  0  0  0  0  0  0  0  0
    6.5550   -0.3528  -14.9260 C   0  0  0  0  0  0  0  0  0  0  0  0
    4.0963    2.3527  -17.1344 H   0  0  0  0  0  0  0  0  0  0  0  0
    2.6714    1.5620  -17.0883 H   0  0  0  0  0  0  0  0  0  0  0  0
    3.5975    1.5454  -18.4766 H   0  0  0  0  0  0  0  0  0  0  0  0
    4.2203    0.2962  -15.8593 H   0  0  0  0  0  0  0  0  0  0  0  0
    5.3744   -2.3513  -17.1124 H   0  0  0  0  0  0  0  0  0  0  0  0
    3.8467   -3.1981  -17.3052 H   0  0  0  0  0  0  0  0  0  0  0  0
    4.1929   -2.3095  -15.8132 H   0  0  0  0  0  0  0  0  0  0  0  0
    1.7107   -1.9887  -17.4980 H   0  0  0  0  0  0  0  0  0  0  0  0
    1.6274   -0.2466  -17.6943 H   0  0  0  0  0  0  0  0  0  0  0  0
    2.0056   -0.9413  -16.1152 H   0  0  0  0  0  0  0  0  0  0  0  0
    3.3204   -2.0227  -19.4384 H   0  0  0  0  0  0  0  0  0  0  0  0
    4.8712   -1.2038  -19.3612 H   0  0  0  0  0  0  0  0  0  0  0  0
    3.3837   -0.2725  -19.5704 H   0  0  0  0  0  0  0  0  0  0  0  0
    8.3513    1.1152  -17.1170 H   0  0  0  0  0  0  0  0  0  0  0  0
   10.4169    0.3700  -17.8009 H   0  0  0  0  0  0  0  0  0  0  0  0
   10.2212   -2.3289  -19.0611 H   0  0  0  0  0  0  0  0  0  0  0  0
   10.8531   -0.8609  -19.8294 H   0  0  0  0  0  0  0  0  0  0  0  0
   12.6257   -2.8774  -20.1854 H   0  0  0  0  0  0  0  0  0  0  0  0
   14.8471   -3.5582  -19.4649 H   0  0  0  0  0  0  0  0  0  0  0  0
   15.8313   -4.9120  -14.2802 H   0  0  0  0  0  0  0  0  0  0  0  0
   14.9313   -5.3428  -15.7343 H   0  0  0  0  0  0  0  0  0  0  0  0
   14.5740   -3.8324  -14.8599 H   0  0  0  0  0  0  0  0  0  0  0  0
   19.4658   -3.3640  -16.6922 H   0  0  0  0  0  0  0  0  0  0  0  0
   14.3163   -1.3833  -15.8044 H   0  0  0  0  0  0  0  0  0  0  0  0
   12.1043   -0.7113  -16.5112 H   0  0  0  0  0  0  0  0  0  0  0  0
    9.8864   -0.0754  -15.1449 H   0  0  0  0  0  0  0  0  0  0  0  0
    8.8160    1.2798  -14.7913 H   0  0  0  0  0  0  0  0  0  0  0  0
    8.2102   -1.6681  -14.5141 H   0  0  0  0  0  0  0  0  0  0  0  0
    8.8822   -0.7077  -12.6693 H   0  0  0  0  0  0  0  0  0  0  0  0
    6.0460    0.4624  -14.4055 H   0  0  0  0  0  0  0  0  0  0  0  0
    5.9133   -1.2330  -14.8644 H   0  0  0  0  0  0  0  0  0  0  0  0
  1 31  1  0  0  0  0
  1 32  1  0  0  0  0
  1 33  1  0  0  0  0
  2  1  1  0  0  0  0
  2 34  1  0  0  0  0
  2  3  1  0  0  0  0
  2  7  1  0  0  0  0
  3  4  1  0  0  0  0
  3  5  1  0  0  0  0
  3  6  1  0  0  0  0
  4 35  1  0  0  0  0
  4 36  1  0  0  0  0
  4 37  1  0  0  0  0
  5 38  1  0  0  0  0
  5 39  1  0  0  0  0
  5 40  1  0  0  0  0
  6 41  1  0  0  0  0
  6 42  1  0  0  0  0
  6 43  1  0  0  0  0
  7  8  2  0  0  0  0
  7  9  1  0  0  0  0
  9 30  1  0  0  0  0
 10  9  1  0  0  0  0
 10 27  1  0  0  0  0
 10 44  1  0  0  0  0
 10 11  1  0  0  0  0
 11 12  2  0  0  0  0
 11 13  1  0  0  0  0
 13 45  1  0  0  0  0
 13 14  1  0  0  0  0
 14 46  1  0  0  0  0
 14 47  1  0  0  0  0
 14 15  1  0  0  0  0
 15 16  1  0  0  0  0
 15 26  2  0  0  0  0
 16 48  1  0  0  0  0
 16 17  2  0  0  0  0
 17 49  1  0  0  0  0
 17 18  1  0  0  0  0
 18 25  2  0  0  0  0
 18 19  1  0  0  0  0
 19 20  2  0  0  0  0
 19 24  1  0  0  0  0
 20 21  1  0  0  0  0
 20 22  1  0  0  0  0
 21 50  1  0  0  0  0
 21 51  1  0  0  0  0
 21 52  1  0  0  0  0
 22 23  2  0  0  0  0
 23 53  1  0  0  0  0
 23 24  1  0  0  0  0
 25 54  1  0  0  0  0
 25 26  1  0  0  0  0
 26 55  1  0  0  0  0
 28 27  1  0  0  0  0
 27 56  1  0  0  0  0
 27 57  1  0  0  0  0
 28 30  1  0  0  0  0
 28 58  1  0  0  0  0
 28 29  1  0  0  0  0
 29 59  1  0  0  0  0
 30 60  1  0  0  0  0
 30 61  1  0  0  0  0
M  ZZC   1 n1
M  ZZC   2 c1
M  ZZC   3 c2
M  ZZC   4 c3
M  ZZC   5 c4
M  ZZC   6 c5
M  ZZC   7 c6
M  ZZC   8 o1
M  ZZC   9 n2
M  ZZC  10 c7
M  ZZC  11 c8
M  ZZC  12 o2
M  ZZC  13 n3
M  ZZC  14 c9
M  ZZC  15 c10
M  ZZC  16 c11
M  ZZC  17 c12
M  ZZC  18 c13
M  ZZC  19 c14
M  ZZC  20 c15
M  ZZC  21 c16
M  ZZC  22 n4
M  ZZC  23 c17
M  ZZC  24 s1
M  ZZC  25 c18
M  ZZC  26 c19
M  ZZC  27 c20
M  ZZC  28 c21
M  ZZC  29 o3
M  ZZC  30 c22
M  ZZC  31 h11
M  ZZC  32 h12
M  ZZC  33 h13
M  ZZC  34 h01
M  ZZC  35 h31
M  ZZC  36 h32
M  ZZC  37 h33
M  ZZC  38 h41
M  ZZC  39 h42
M  ZZC  40 h43
M  ZZC  41 h51
M  ZZC  42 h52
M  ZZC  43 h53
M  ZZC  44 h71
M  ZZC  45 h02
M  ZZC  46 h91
M  ZZC  47 h92
M  ZZC  48 h111
M  ZZC  49 h121
M  ZZC  50 h161
M  ZZC  51 h162
M  ZZC  52 h163
M  ZZC  53 h171
M  ZZC  54 h181
M  ZZC  55 h191
M  ZZC  56 h201
M  ZZC  57 h202
M  ZZC  58 h211
M  ZZC  59 h03
M  ZZC  60 h221
M  ZZC  61 h222
M  ZZM   1 34
M  ZZI   1 231
M  ZZM   2 1
M  ZZI   2 113
M  ZZM   3 1
M  ZZI   3 110
M  ZZM   4 1
M  ZZI   4 111
M  ZZM   5 1
M  ZZI   5 111
M  ZZM   6 1
M  ZZI   6 111
M  ZZM   7 3
M  ZZI   7 121
M  ZZM   8 7
M  ZZI   8 81
M  ZZM   9 10
M  ZZI   9 192
M  ZZM  10 1
M  ZZI  10 113
M  ZZM  11 3
M  ZZI  11 121
M  ZZM  12 7
M  ZZI  12 81
M  ZZM  13 10
M  ZZI  13 211
M  ZZM  14 1
M  ZZI  14 112
M  ZZM  15 37
M  ZZI  15 124
M  ZZM  16 37
M  ZZI  16 125
M  ZZM  17 37
M  ZZI  17 125
M  ZZM  18 37
M  ZZI  18 124
M  ZZM  19 63
M  ZZI  19 104
M  ZZM  20 64
M  ZZI  20 105
M  ZZM  21 1
M  ZZI  21 111
M  ZZM  22 66
M  ZZI  22 222
M  ZZM  23 63
M  ZZI  23 104
M  ZZM  24 44
M  ZZI  24 248
M  ZZM  25 37
M  ZZI  25 125
M  ZZM  26 37
M  ZZI  26 125
M  ZZM  27 1
M  ZZI  27 112
M  ZZM  28 1
M  ZZI  28 113
M  ZZM  29 6
M  ZZI  29 60
M  ZZM  30 1
M  ZZI  30 112
M  ZZM  31 36
M  ZZI  31 17
M  ZZM  32 36
M  ZZI  32 17
M  ZZM  33 36
M  ZZI  33 17
M  ZZM  34 5
M  ZZI  34 1
M  ZZM  35 5
M  ZZI  35 1
M  ZZM  36 5
M  ZZI  36 1
M  ZZM  37 5
M  ZZI  37 1
M  ZZM  38 5
M  ZZI  38 1
M  ZZM  39 5
M  ZZI  39 1
M  ZZM  40 5
M  ZZI  40 1
M  ZZM  41 5
M  ZZI  41 1
M  ZZM  42 5
M  ZZI  42 1
M  ZZM  43 5
M  ZZI  43 1
M  ZZM  44 5
M  ZZI  44 1
M  ZZM  45 28
M  ZZI  45 11
M  ZZM  46 5
M  ZZI  46 1
M  ZZM  47 5
M  ZZI  47 1
M  ZZM  48 5
M  ZZI  48 1
M  ZZM  49 5
M  ZZI  49 1
M  ZZM  50 5
M  ZZI  50 1
M  ZZM  51 5
M  ZZI  51 1
M  ZZM  52 5
M  ZZI  52 1
M  ZZM  53 5
M  ZZI  53 1
M  ZZM  54 5
M  ZZI  54 1
M  ZZM  55 5
M  ZZI  55 1
M  ZZM  56 5
M  ZZI  56 1
M  ZZM  57 5
M  ZZI  57 1
M  ZZM  58 5
M  ZZI  58 1
M  ZZM  59 21
M  ZZI  59 20
M  ZZM  60 5
M  ZZI  60 1
M  ZZM  61 5
M  ZZI  61 1
M  CHG  1   1   1
M  END
> <IX>
1

> <NAME>
VHL_3K6P_3.pdb

> <Score>
-7.423766

> <Natom>
61

> <Nflex>
7

> <Hbond>
-5.267116

> <Hphob>
-5.563667

> <VwInt>
-19.877923

> <Dsolv>
18.720694

> <SolEl>
12.234045

> <Eintl>
5.321042

> <RecConf>
ND

> <projPath>
VHL_maps/

> <NAME_>
VHL_3K6P_3.pdb

$$$$
