VHL_6W7F_2.pdb
  MOLSOFT 04032206423D

 65 67  0  0  1  0  0  0  0  0999 V2000
   18.1399   -6.6491   -5.1548 C   0  0  0  0  0  0  0  0  0  0  0  0
   16.9170   -5.7887   -4.9851 C   0  0  0  0  0  0  0  0  0  0  0  0
   15.8301   -6.1611   -5.3921 O   0  0  0  0  0  0  0  0  0  0  0  0
   17.1554   -4.6037   -4.3166 N   0  0  0  0  0  0  0  0  0  0  0  0
   16.1376   -3.5770   -4.0380 C   0  0  1  0  0  0  0  0  0  0  0  0
   15.8860   -3.4083   -2.5104 C   0  0  0  0  0  0  0  0  0  0  0  0
   15.4203   -4.7586   -1.9517 C   0  0  0  0  0  0  0  0  0  0  0  0
   14.7764   -2.3966   -2.2016 C   0  0  0  0  0  0  0  0  0  0  0  0
   17.1449   -2.9529   -1.7588 C   0  0  0  0  0  0  0  0  0  0  0  0
   16.6257   -2.3247   -4.7970 C   0  0  0  0  0  0  0  0  0  0  0  0
   17.8191   -2.0491   -4.8470 O   0  0  0  0  0  0  0  0  0  0  0  0
   15.6701   -1.5530   -5.4660 N   0  0  0  0  0  0  0  0  0  0  0  0
   16.0590   -0.6395   -6.5302 C   0  0  2  0  0  0  0  0  0  0  0  0
   16.4382    0.7533   -6.0201 C   0  0  0  0  0  0  0  0  0  0  0  0
   15.9037    1.2781   -5.0525 O   0  0  0  0  0  0  0  0  0  0  0  0
   17.3860    1.3809   -6.8069 N   0  0  0  0  0  0  0  0  0  0  0  0
   17.8383    2.7349   -6.5332 C   0  0  0  0  0  0  0  0  0  0  0  0
   19.2444    3.0173   -7.0062 C   0  0  0  0  0  0  0  0  0  0  0  0
   20.1883    2.0053   -7.1258 C   0  0  0  0  0  0  0  0  0  0  0  0
   21.4870    2.2827   -7.4985 C   0  0  0  0  0  0  0  0  0  0  0  0
   21.8971    3.5805   -7.7570 C   0  0  0  0  0  0  0  0  0  0  0  0
   23.2814    3.8427   -8.1161 C   0  0  0  0  0  0  0  0  0  0  0  0
   24.3492    4.2613   -7.3352 C   0  0  0  0  0  0  0  0  0  0  0  0
   24.3184    4.5911   -5.8923 C   0  0  0  0  0  0  0  0  0  0  0  0
   25.5587    4.3429   -7.9958 N   0  0  0  0  0  0  0  0  0  0  0  0
   25.3969    4.0116   -9.2571 C   0  0  0  0  0  0  0  0  0  0  0  0
   23.8114    3.5949   -9.7314 S   0  0  0  0  0  0  0  0  0  0  0  0
   20.9640    4.6029   -7.6377 C   0  0  0  0  0  0  0  0  0  0  0  0
   19.6561    4.3228   -7.2660 C   0  0  0  0  0  0  0  0  0  0  0  0
   14.8204   -0.5704   -7.4091 C   0  0  0  0  0  0  0  0  0  0  0  0
   13.6695   -0.6945   -6.4219 C   0  0  1  0  0  0  0  0  0  0  0  0
   12.5300   -1.3166   -7.0099 O   0  0  0  0  0  0  0  0  0  0  0  0
   14.2244   -1.5806   -5.3196 C   0  0  0  0  0  0  0  0  0  0  0  0
   19.0467   -6.0409   -5.2221 H   0  0  0  0  0  0  0  0  0  0  0  0
   18.0486   -7.2343   -6.0747 H   0  0  0  0  0  0  0  0  0  0  0  0
   18.2168   -7.3297   -4.3034 H   0  0  0  0  0  0  0  0  0  0  0  0
   18.1153   -4.3882   -4.0723 H   0  0  0  0  0  0  0  0  0  0  0  0
   15.2102   -3.9239   -4.4930 H   0  0  0  0  0  0  0  0  0  0  0  0
   15.1612   -4.6756   -0.8937 H   0  0  0  0  0  0  0  0  0  0  0  0
   16.1908   -5.5258   -2.0479 H   0  0  0  0  0  0  0  0  0  0  0  0
   14.5318   -5.1255   -2.4755 H   0  0  0  0  0  0  0  0  0  0  0  0
   15.0558   -1.3876   -2.5226 H   0  0  0  0  0  0  0  0  0  0  0  0
   14.5750   -2.3401   -1.1276 H   0  0  0  0  0  0  0  0  0  0  0  0
   13.8487   -2.6414   -2.7261 H   0  0  0  0  0  0  0  0  0  0  0  0
   16.9621   -2.8802   -0.6818 H   0  0  0  0  0  0  0  0  0  0  0  0
   17.4874   -1.9700   -2.0966 H   0  0  0  0  0  0  0  0  0  0  0  0
   17.9691   -3.6509   -1.8921 H   0  0  0  0  0  0  0  0  0  0  0  0
   16.9066   -1.0601   -7.0813 H   0  0  0  0  0  0  0  0  0  0  0  0
   17.7847    0.8802   -7.5962 H   0  0  0  0  0  0  0  0  0  0  0  0
   17.1321    3.4018   -7.0399 H   0  0  0  0  0  0  0  0  0  0  0  0
   17.7719    2.9271   -5.4570 H   0  0  0  0  0  0  0  0  0  0  0  0
   19.9215    0.9743   -6.9260 H   0  0  0  0  0  0  0  0  0  0  0  0
   22.1866    1.4608   -7.5869 H   0  0  0  0  0  0  0  0  0  0  0  0
   25.2735    5.0114   -5.5642 H   0  0  0  0  0  0  0  0  0  0  0  0
   24.1283    3.6946   -5.2974 H   0  0  0  0  0  0  0  0  0  0  0  0
   23.5372    5.3246   -5.6734 H   0  0  0  0  0  0  0  0  0  0  0  0
   26.2154    4.0036   -9.9626 H   0  0  0  0  0  0  0  0  0  0  0  0
   21.2525    5.6318   -7.8309 H   0  0  0  0  0  0  0  0  0  0  0  0
   18.9518    5.1442   -7.1711 H   0  0  0  0  0  0  0  0  0  0  0  0
   14.7520    0.3450   -8.0064 H   0  0  0  0  0  0  0  0  0  0  0  0
   14.8100   -1.4155   -8.1060 H   0  0  0  0  0  0  0  0  0  0  0  0
   13.3726    0.2830   -6.0247 H   0  0  0  0  0  0  0  0  0  0  0  0
   12.1737   -0.7197   -7.6926 H   0  0  0  0  0  0  0  0  0  0  0  0
   13.8420   -2.6020   -5.3509 H   0  0  0  0  0  0  0  0  0  0  0  0
   13.9572   -1.1516   -4.3537 H   0  0  0  0  0  0  0  0  0  0  0  0
  1 34  1  0  0  0  0
  1 35  1  0  0  0  0
  1 36  1  0  0  0  0
  1  2  1  0  0  0  0
  2  3  2  0  0  0  0
  2  4  1  0  0  0  0
  4 37  1  0  0  0  0
  5  4  1  0  0  0  0
  5 38  1  0  0  0  0
  5  6  1  0  0  0  0
  5 10  1  0  0  0  0
  6  7  1  0  0  0  0
  6  8  1  0  0  0  0
  6  9  1  0  0  0  0
  7 39  1  0  0  0  0
  7 40  1  0  0  0  0
  7 41  1  0  0  0  0
  8 42  1  0  0  0  0
  8 43  1  0  0  0  0
  8 44  1  0  0  0  0
  9 45  1  0  0  0  0
  9 46  1  0  0  0  0
  9 47  1  0  0  0  0
 10 11  2  0  0  0  0
 10 12  1  0  0  0  0
 12 33  1  0  0  0  0
 13 12  1  0  0  0  0
 13 30  1  0  0  0  0
 13 48  1  0  0  0  0
 13 14  1  0  0  0  0
 14 15  2  0  0  0  0
 14 16  1  0  0  0  0
 16 49  1  0  0  0  0
 16 17  1  0  0  0  0
 17 50  1  0  0  0  0
 17 51  1  0  0  0  0
 17 18  1  0  0  0  0
 18 19  1  0  0  0  0
 18 29  2  0  0  0  0
 19 52  1  0  0  0  0
 19 20  2  0  0  0  0
 20 53  1  0  0  0  0
 20 21  1  0  0  0  0
 21 28  2  0  0  0  0
 21 22  1  0  0  0  0
 22 23  2  0  0  0  0
 22 27  1  0  0  0  0
 23 24  1  0  0  0  0
 23 25  1  0  0  0  0
 24 54  1  0  0  0  0
 24 55  1  0  0  0  0
 24 56  1  0  0  0  0
 25 26  2  0  0  0  0
 26 57  1  0  0  0  0
 26 27  1  0  0  0  0
 28 58  1  0  0  0  0
 28 29  1  0  0  0  0
 29 59  1  0  0  0  0
 31 30  1  0  0  0  0
 30 60  1  0  0  0  0
 30 61  1  0  0  0  0
 31 33  1  0  0  0  0
 31 62  1  0  0  0  0
 31 32  1  0  0  0  0
 32 63  1  0  0  0  0
 33 64  1  0  0  0  0
 33 65  1  0  0  0  0
M  ZZC   1 c1
M  ZZC   2 c2
M  ZZC   3 o1
M  ZZC   4 n1
M  ZZC   5 c3
M  ZZC   6 c4
M  ZZC   7 c5
M  ZZC   8 c6
M  ZZC   9 c7
M  ZZC  10 c8
M  ZZC  11 o2
M  ZZC  12 n2
M  ZZC  13 c9
M  ZZC  14 c10
M  ZZC  15 o3
M  ZZC  16 n3
M  ZZC  17 c11
M  ZZC  18 c12
M  ZZC  19 c13
M  ZZC  20 c14
M  ZZC  21 c15
M  ZZC  22 c16
M  ZZC  23 c17
M  ZZC  24 c18
M  ZZC  25 n4
M  ZZC  26 c19
M  ZZC  27 s1
M  ZZC  28 c20
M  ZZC  29 c21
M  ZZC  30 c22
M  ZZC  31 c23
M  ZZC  32 o4
M  ZZC  33 c24
M  ZZC  34 h11
M  ZZC  35 h12
M  ZZC  36 h13
M  ZZC  37 h01
M  ZZC  38 h31
M  ZZC  39 h51
M  ZZC  40 h52
M  ZZC  41 h53
M  ZZC  42 h61
M  ZZC  43 h62
M  ZZC  44 h63
M  ZZC  45 h71
M  ZZC  46 h72
M  ZZC  47 h73
M  ZZC  48 h91
M  ZZC  49 h02
M  ZZC  50 h111
M  ZZC  51 h112
M  ZZC  52 h131
M  ZZC  53 h141
M  ZZC  54 h181
M  ZZC  55 h182
M  ZZC  56 h183
M  ZZC  57 h191
M  ZZC  58 h201
M  ZZC  59 h211
M  ZZC  60 h221
M  ZZC  61 h222
M  ZZC  62 h231
M  ZZC  63 h41
M  ZZC  64 h241
M  ZZC  65 h242
M  ZZM   1 1
M  ZZI   1 111
M  ZZM   2 3
M  ZZI   2 121
M  ZZM   3 7
M  ZZI   3 81
M  ZZM   4 10
M  ZZI   4 211
M  ZZM   5 1
M  ZZI   5 113
M  ZZM   6 1
M  ZZI   6 110
M  ZZM   7 1
M  ZZI   7 111
M  ZZM   8 1
M  ZZI   8 111
M  ZZM   9 1
M  ZZI   9 111
M  ZZM  10 3
M  ZZI  10 121
M  ZZM  11 7
M  ZZI  11 81
M  ZZM  12 10
M  ZZI  12 192
M  ZZM  13 1
M  ZZI  13 113
M  ZZM  14 3
M  ZZI  14 121
M  ZZM  15 7
M  ZZI  15 81
M  ZZM  16 10
M  ZZI  16 211
M  ZZM  17 1
M  ZZI  17 112
M  ZZM  18 37
M  ZZI  18 124
M  ZZM  19 37
M  ZZI  19 125
M  ZZM  20 37
M  ZZI  20 125
M  ZZM  21 37
M  ZZI  21 124
M  ZZM  22 63
M  ZZI  22 104
M  ZZM  23 64
M  ZZI  23 105
M  ZZM  24 1
M  ZZI  24 111
M  ZZM  25 66
M  ZZI  25 222
M  ZZM  26 63
M  ZZI  26 104
M  ZZM  27 44
M  ZZI  27 248
M  ZZM  28 37
M  ZZI  28 125
M  ZZM  29 37
M  ZZI  29 125
M  ZZM  30 1
M  ZZI  30 112
M  ZZM  31 1
M  ZZI  31 113
M  ZZM  32 6
M  ZZI  32 60
M  ZZM  33 1
M  ZZI  33 112
M  ZZM  34 5
M  ZZI  34 1
M  ZZM  35 5
M  ZZI  35 1
M  ZZM  36 5
M  ZZI  36 1
M  ZZM  37 28
M  ZZI  37 11
M  ZZM  38 5
M  ZZI  38 1
M  ZZM  39 5
M  ZZI  39 1
M  ZZM  40 5
M  ZZI  40 1
M  ZZM  41 5
M  ZZI  41 1
M  ZZM  42 5
M  ZZI  42 1
M  ZZM  43 5
M  ZZI  43 1
M  ZZM  44 5
M  ZZI  44 1
M  ZZM  45 5
M  ZZI  45 1
M  ZZM  46 5
M  ZZI  46 1
M  ZZM  47 5
M  ZZI  47 1
M  ZZM  48 5
M  ZZI  48 1
M  ZZM  49 28
M  ZZI  49 11
M  ZZM  50 5
M  ZZI  50 1
M  ZZM  51 5
M  ZZI  51 1
M  ZZM  52 5
M  ZZI  52 1
M  ZZM  53 5
M  ZZI  53 1
M  ZZM  54 5
M  ZZI  54 1
M  ZZM  55 5
M  ZZI  55 1
M  ZZM  56 5
M  ZZI  56 1
M  ZZM  57 5
M  ZZI  57 1
M  ZZM  58 5
M  ZZI  58 1
M  ZZM  59 5
M  ZZI  59 1
M  ZZM  60 5
M  ZZI  60 1
M  ZZM  61 5
M  ZZI  61 1
M  ZZM  62 5
M  ZZI  62 1
M  ZZM  63 21
M  ZZI  63 20
M  ZZM  64 5
M  ZZI  64 1
M  ZZM  65 5
M  ZZI  65 1
M  END
> <IX>
1

> <NAME>
VHL_6W7F_2.pdb

> <Score>
-11.805631

> <Natom>
65

> <Nflex>
8

> <Hbond>
-4.968793

> <Hphob>
-6.449528

> <VwInt>
-28.356017

> <Dsolv>
16.827349

> <SolEl>
16.694871

> <Eintl>
8.33915

> <RecConf>
ND

> <projPath>
VHL_maps/

> <NAME_>
VHL_6W7F_2.pdb

$$$$
