VHL_4IM0_24.pdb
  MOLSOFT 04032206383D

 65 67  0  0  1  0  0  0  0  0999 V2000
   15.8069   -6.1186   -5.3696 O   0  0  0  0  0  0  0  0  0  0  0  0
   16.8943   -5.7697   -4.9436 C   0  0  0  0  0  0  0  0  0  0  0  0
   17.1392   -4.5934   -4.2617 N   0  0  0  0  0  0  0  0  0  0  0  0
   16.1357   -3.5485   -3.9966 C   0  0  1  0  0  0  0  0  0  0  0  0
   15.9103   -3.3334   -2.4701 C   0  0  0  0  0  0  0  0  0  0  0  0
   14.8094   -2.3081   -2.1743 C   0  0  0  0  0  0  0  0  0  0  0  0
   15.4505   -4.6631   -1.8611 C   0  0  0  0  0  0  0  0  0  0  0  0
   17.1829   -2.8631   -1.7508 C   0  0  0  0  0  0  0  0  0  0  0  0
   16.6279   -2.3182   -4.7883 C   0  0  0  0  0  0  0  0  0  0  0  0
   17.8228   -2.0520   -4.8506 O   0  0  0  0  0  0  0  0  0  0  0  0
   15.6733   -1.5507   -5.4633 N   0  0  0  0  0  0  0  0  0  0  0  0
   16.0636   -0.6409   -6.5302 C   0  0  2  0  0  0  0  0  0  0  0  0
   16.4451    0.7522   -6.0220 C   0  0  0  0  0  0  0  0  0  0  0  0
   15.9187    1.2743   -5.0485 O   0  0  0  0  0  0  0  0  0  0  0  0
   17.3825    1.3840   -6.8181 N   0  0  0  0  0  0  0  0  0  0  0  0
   17.8339    2.7392   -6.5480 C   0  0  0  0  0  0  0  0  0  0  0  0
   19.2442    3.0189   -7.0104 C   0  0  0  0  0  0  0  0  0  0  0  0
   19.6601    4.3242   -7.2643 C   0  0  0  0  0  0  0  0  0  0  0  0
   20.9696    4.6025   -7.6316 C   0  0  0  0  0  0  0  0  0  0  0  0
   21.9004    3.5783   -7.7536 C   0  0  0  0  0  0  0  0  0  0  0  0
   23.2851    3.8384   -8.1136 C   0  0  0  0  0  0  0  0  0  0  0  0
   24.3541    4.2563   -7.3341 C   0  0  0  0  0  0  0  0  0  0  0  0
   24.3253    4.5860   -5.8912 C   0  0  0  0  0  0  0  0  0  0  0  0
   25.5626    4.3378   -7.9964 N   0  0  0  0  0  0  0  0  0  0  0  0
   25.3989    4.0069   -9.2577 C   0  0  0  0  0  0  0  0  0  0  0  0
   23.8125    3.5909   -9.7297 S   0  0  0  0  0  0  0  0  0  0  0  0
   21.4865    2.2807   -7.4990 C   0  0  0  0  0  0  0  0  0  0  0  0
   20.1863    2.0052   -7.1297 C   0  0  0  0  0  0  0  0  0  0  0  0
   14.8259   -0.5719   -7.4105 C   0  0  0  0  0  0  0  0  0  0  0  0
   13.6746   -0.6929   -6.4234 C   0  0  1  0  0  0  0  0  0  0  0  0
   12.5322   -1.3091   -7.0119 O   0  0  0  0  0  0  0  0  0  0  0  0
   14.2270   -1.5828   -5.3231 C   0  0  0  0  0  0  0  0  0  0  0  0
   18.1082   -6.6421   -5.1085 C   0  0  0  0  0  0  0  0  0  0  0  0
   18.1005   -4.3885   -4.0165 H   0  0  0  0  0  0  0  0  0  0  0  0
   15.1986   -3.8962   -4.4327 H   0  0  0  0  0  0  0  0  0  0  0  0
   13.8625   -2.5923   -2.6434 H   0  0  0  0  0  0  0  0  0  0  0  0
   15.0886   -1.3062   -2.5118 H   0  0  0  0  0  0  0  0  0  0  0  0
   14.6157   -2.2294   -1.0993 H   0  0  0  0  0  0  0  0  0  0  0  0
   16.2242   -5.4292   -1.9344 H   0  0  0  0  0  0  0  0  0  0  0  0
   14.5618   -5.0517   -2.3685 H   0  0  0  0  0  0  0  0  0  0  0  0
   15.1958   -4.5436   -0.8049 H   0  0  0  0  0  0  0  0  0  0  0  0
   17.5277   -1.9017   -2.1272 H   0  0  0  0  0  0  0  0  0  0  0  0
   18.0055   -3.5717   -1.8921 H   0  0  0  0  0  0  0  0  0  0  0  0
   17.0271   -2.7593   -0.6726 H   0  0  0  0  0  0  0  0  0  0  0  0
   16.9113   -1.0636   -7.0796 H   0  0  0  0  0  0  0  0  0  0  0  0
   17.7775    0.8836   -7.6095 H   0  0  0  0  0  0  0  0  0  0  0  0
   17.1331    3.4035   -7.0654 H   0  0  0  0  0  0  0  0  0  0  0  0
   17.7581    2.9385   -5.4738 H   0  0  0  0  0  0  0  0  0  0  0  0
   18.9573    5.1470   -7.1695 H   0  0  0  0  0  0  0  0  0  0  0  0
   21.2609    5.6314   -7.8215 H   0  0  0  0  0  0  0  0  0  0  0  0
   25.2985    4.9542   -5.5544 H   0  0  0  0  0  0  0  0  0  0  0  0
   24.0729    3.7069   -5.2911 H   0  0  0  0  0  0  0  0  0  0  0  0
   23.5755    5.3538   -5.6867 H   0  0  0  0  0  0  0  0  0  0  0  0
   26.2163    3.9989   -9.9644 H   0  0  0  0  0  0  0  0  0  0  0  0
   22.1841    1.4572   -7.5885 H   0  0  0  0  0  0  0  0  0  0  0  0
   19.9166    0.9743   -6.9337 H   0  0  0  0  0  0  0  0  0  0  0  0
   14.7589    0.3425   -8.0094 H   0  0  0  0  0  0  0  0  0  0  0  0
   14.8147   -1.4181   -8.1060 H   0  0  0  0  0  0  0  0  0  0  0  0
   13.3821    0.2853   -6.0247 H   0  0  0  0  0  0  0  0  0  0  0  0
   12.1852   -0.7148   -7.7017 H   0  0  0  0  0  0  0  0  0  0  0  0
   13.8488   -2.6054   -5.3629 H   0  0  0  0  0  0  0  0  0  0  0  0
   13.9519   -1.1619   -4.3562 H   0  0  0  0  0  0  0  0  0  0  0  0
   17.9965   -7.2545   -6.0083 H   0  0  0  0  0  0  0  0  0  0  0  0
   18.1957   -7.2977   -4.2388 H   0  0  0  0  0  0  0  0  0  0  0  0
   19.0164   -6.0408   -5.2119 H   0  0  0  0  0  0  0  0  0  0  0  0
  1  2  2  0  0  0  0
  2  3  1  0  0  0  0
  2 33  1  0  0  0  0
  4  3  1  0  0  0  0
  3 34  1  0  0  0  0
  4  5  1  0  0  0  0
  4 35  1  0  0  0  0
  4  9  1  0  0  0  0
  5  6  1  0  0  0  0
  5  7  1  0  0  0  0
  5  8  1  0  0  0  0
  6 36  1  0  0  0  0
  6 37  1  0  0  0  0
  6 38  1  0  0  0  0
  7 39  1  0  0  0  0
  7 40  1  0  0  0  0
  7 41  1  0  0  0  0
  8 42  1  0  0  0  0
  8 43  1  0  0  0  0
  8 44  1  0  0  0  0
  9 10  2  0  0  0  0
  9 11  1  0  0  0  0
 11 32  1  0  0  0  0
 12 11  1  0  0  0  0
 12 29  1  0  0  0  0
 12 45  1  0  0  0  0
 12 13  1  0  0  0  0
 13 14  2  0  0  0  0
 13 15  1  0  0  0  0
 15 46  1  0  0  0  0
 15 16  1  0  0  0  0
 16 47  1  0  0  0  0
 16 48  1  0  0  0  0
 16 17  1  0  0  0  0
 17 18  1  0  0  0  0
 17 28  2  0  0  0  0
 18 49  1  0  0  0  0
 18 19  2  0  0  0  0
 19 50  1  0  0  0  0
 19 20  1  0  0  0  0
 20 27  2  0  0  0  0
 20 21  1  0  0  0  0
 21 22  2  0  0  0  0
 21 26  1  0  0  0  0
 22 23  1  0  0  0  0
 22 24  1  0  0  0  0
 23 51  1  0  0  0  0
 23 52  1  0  0  0  0
 23 53  1  0  0  0  0
 24 25  2  0  0  0  0
 25 54  1  0  0  0  0
 25 26  1  0  0  0  0
 27 55  1  0  0  0  0
 27 28  1  0  0  0  0
 28 56  1  0  0  0  0
 30 29  1  0  0  0  0
 29 57  1  0  0  0  0
 29 58  1  0  0  0  0
 30 32  1  0  0  0  0
 30 59  1  0  0  0  0
 30 31  1  0  0  0  0
 31 60  1  0  0  0  0
 32 61  1  0  0  0  0
 32 62  1  0  0  0  0
 33 63  1  0  0  0  0
 33 64  1  0  0  0  0
 33 65  1  0  0  0  0
M  ZZC   1 o1
M  ZZC   2 c1
M  ZZC   3 n1
M  ZZC   4 c2
M  ZZC   5 c3
M  ZZC   6 c4
M  ZZC   7 c5
M  ZZC   8 c6
M  ZZC   9 c7
M  ZZC  10 o2
M  ZZC  11 n2
M  ZZC  12 c8
M  ZZC  13 c9
M  ZZC  14 o3
M  ZZC  15 n3
M  ZZC  16 c10
M  ZZC  17 c11
M  ZZC  18 c12
M  ZZC  19 c13
M  ZZC  20 c14
M  ZZC  21 c15
M  ZZC  22 c16
M  ZZC  23 c17
M  ZZC  24 n4
M  ZZC  25 c18
M  ZZC  26 s1
M  ZZC  27 c19
M  ZZC  28 c20
M  ZZC  29 c21
M  ZZC  30 c22
M  ZZC  31 o4
M  ZZC  32 c23
M  ZZC  33 c24
M  ZZC  34 h11
M  ZZC  35 h21
M  ZZC  36 h41
M  ZZC  37 h42
M  ZZC  38 h43
M  ZZC  39 h51
M  ZZC  40 h52
M  ZZC  41 h53
M  ZZC  42 h61
M  ZZC  43 h62
M  ZZC  44 h63
M  ZZC  45 h81
M  ZZC  46 h31
M  ZZC  47 h101
M  ZZC  48 h102
M  ZZC  49 h121
M  ZZC  50 h131
M  ZZC  51 h171
M  ZZC  52 h172
M  ZZC  53 h173
M  ZZC  54 h181
M  ZZC  55 h191
M  ZZC  56 h201
M  ZZC  57 h211
M  ZZC  58 h212
M  ZZC  59 h221
M  ZZC  60 h01
M  ZZC  61 h231
M  ZZC  62 h232
M  ZZC  63 h241
M  ZZC  64 h242
M  ZZC  65 h243
M  ZZM   1 7
M  ZZI   1 81
M  ZZM   2 3
M  ZZI   2 121
M  ZZM   3 10
M  ZZI   3 211
M  ZZM   4 1
M  ZZI   4 113
M  ZZM   5 1
M  ZZI   5 110
M  ZZM   6 1
M  ZZI   6 111
M  ZZM   7 1
M  ZZI   7 111
M  ZZM   8 1
M  ZZI   8 111
M  ZZM   9 3
M  ZZI   9 121
M  ZZM  10 7
M  ZZI  10 81
M  ZZM  11 10
M  ZZI  11 192
M  ZZM  12 1
M  ZZI  12 113
M  ZZM  13 3
M  ZZI  13 121
M  ZZM  14 7
M  ZZI  14 81
M  ZZM  15 10
M  ZZI  15 211
M  ZZM  16 1
M  ZZI  16 112
M  ZZM  17 37
M  ZZI  17 124
M  ZZM  18 37
M  ZZI  18 125
M  ZZM  19 37
M  ZZI  19 125
M  ZZM  20 37
M  ZZI  20 124
M  ZZM  21 63
M  ZZI  21 104
M  ZZM  22 64
M  ZZI  22 105
M  ZZM  23 1
M  ZZI  23 111
M  ZZM  24 66
M  ZZI  24 222
M  ZZM  25 63
M  ZZI  25 104
M  ZZM  26 44
M  ZZI  26 248
M  ZZM  27 37
M  ZZI  27 125
M  ZZM  28 37
M  ZZI  28 125
M  ZZM  29 1
M  ZZI  29 112
M  ZZM  30 1
M  ZZI  30 113
M  ZZM  31 6
M  ZZI  31 60
M  ZZM  32 1
M  ZZI  32 112
M  ZZM  33 1
M  ZZI  33 111
M  ZZM  34 28
M  ZZI  34 11
M  ZZM  35 5
M  ZZI  35 1
M  ZZM  36 5
M  ZZI  36 1
M  ZZM  37 5
M  ZZI  37 1
M  ZZM  38 5
M  ZZI  38 1
M  ZZM  39 5
M  ZZI  39 1
M  ZZM  40 5
M  ZZI  40 1
M  ZZM  41 5
M  ZZI  41 1
M  ZZM  42 5
M  ZZI  42 1
M  ZZM  43 5
M  ZZI  43 1
M  ZZM  44 5
M  ZZI  44 1
M  ZZM  45 5
M  ZZI  45 1
M  ZZM  46 28
M  ZZI  46 11
M  ZZM  47 5
M  ZZI  47 1
M  ZZM  48 5
M  ZZI  48 1
M  ZZM  49 5
M  ZZI  49 1
M  ZZM  50 5
M  ZZI  50 1
M  ZZM  51 5
M  ZZI  51 1
M  ZZM  52 5
M  ZZI  52 1
M  ZZM  53 5
M  ZZI  53 1
M  ZZM  54 5
M  ZZI  54 1
M  ZZM  55 5
M  ZZI  55 1
M  ZZM  56 5
M  ZZI  56 1
M  ZZM  57 5
M  ZZI  57 1
M  ZZM  58 5
M  ZZI  58 1
M  ZZM  59 5
M  ZZI  59 1
M  ZZM  60 21
M  ZZI  60 20
M  ZZM  61 5
M  ZZI  61 1
M  ZZM  62 5
M  ZZI  62 1
M  ZZM  63 5
M  ZZI  63 1
M  ZZM  64 5
M  ZZI  64 1
M  ZZM  65 5
M  ZZI  65 1
M  END
> <IX>
1

> <NAME>
VHL_4IM0_24.pdb

> <Score>
-11.464023

> <Natom>
65

> <Nflex>
8

> <Hbond>
-4.957129

> <Hphob>
-6.468986

> <VwInt>
-28.015694

> <Dsolv>
16.760217

> <SolEl>
17.265392

> <Eintl>
7.770177

> <RecConf>
ND

> <projPath>
VHL_maps/

> <NAME_>
VHL_4IM0_24.pdb

$$$$
