VHL_5EKO_3.pdb
  MOLSOFT 04032206413D

 71 75  0  0  1  0  0  0  0  0999 V2000
   12.5299    6.3189   -9.3592 O   0  0  0  0  0  0  0  0  0  0  0  0
   13.3489    6.4630   -8.2634 C   0  0  0  0  0  0  0  0  0  0  0  0
   14.0250    5.3477   -7.8022 C   0  0  0  0  0  0  0  0  0  0  0  0
   13.9119    4.0516   -8.5537 C   0  0  0  0  0  0  0  0  0  0  0  0
   13.9093    2.8856   -7.7015 N   0  0  0  0  0  0  0  0  0  0  0  0
   14.6037    1.7541   -8.0703 C   0  0  0  0  0  0  0  0  0  0  0  0
   15.3620    1.7414   -9.0282 O   0  0  0  0  0  0  0  0  0  0  0  0
   14.3311    0.4961   -7.2485 C   0  0  1  0  0  0  0  0  0  0  0  0
   14.7178    0.6281   -5.8475 N   0  0  0  0  0  0  0  0  0  0  0  0
   16.0708    0.7170   -5.5106 C   0  0  0  0  0  0  0  0  0  0  0  0
   16.9196    0.9813   -6.3512 O   0  0  0  0  0  0  0  0  0  0  0  0
   16.4683    0.3778   -4.0663 C   0  0  2  0  0  0  0  0  0  0  0  0
   17.8720    0.9212   -3.6994 C   0  0  0  0  0  0  0  0  0  0  0  0
   18.3517    0.4069   -2.3396 C   0  0  0  0  0  0  0  0  0  0  0  0
   17.8872    2.4509   -3.6812 C   0  0  0  0  0  0  0  0  0  0  0  0
   16.3991   -1.0898   -3.9525 N   0  0  0  0  0  0  0  0  0  0  0  0
   15.7528   -1.7668   -2.9372 C   0  0  0  0  0  0  0  0  0  0  0  0
   15.1408   -1.3235   -1.9757 O   0  0  0  0  0  0  0  0  0  0  0  0
   15.9137   -3.1911   -3.2244 C   0  0  0  0  0  0  0  0  0  0  0  0
   16.6449   -3.3253   -4.3719 C   0  0  0  0  0  0  0  0  0  0  0  0
   16.9527   -4.5788   -4.8684 C   0  0  0  0  0  0  0  0  0  0  0  0
   16.4815   -5.6798   -4.1693 C   0  0  0  0  0  0  0  0  0  0  0  0
   15.7251   -5.5201   -3.0105 C   0  0  0  0  0  0  0  0  0  0  0  0
   15.4296   -4.2653   -2.5097 C   0  0  0  0  0  0  0  0  0  0  0  0
   16.9939   -1.9959   -4.9250 C   0  0  0  0  0  0  0  0  0  0  0  0
   13.6068    0.2764   -4.9779 C   0  0  0  0  0  0  0  0  0  0  0  0
   12.6944   -0.5519   -5.8673 C   0  0  2  0  0  0  0  0  0  0  0  0
   13.1795   -1.8945   -5.9874 O   0  0  0  0  0  0  0  0  0  0  0  0
   12.8467    0.1252   -7.2055 C   0  0  0  0  0  0  0  0  0  0  0  0
   14.8611    5.5072   -6.7001 C   0  0  0  0  0  0  0  0  0  0  0  0
   14.9760    6.7416   -6.0777 C   0  0  0  0  0  0  0  0  0  0  0  0
   14.2808    7.8499   -6.5532 C   0  0  0  0  0  0  0  0  0  0  0  0
   14.3804    9.1440   -5.9020 C   0  0  0  0  0  0  0  0  0  0  0  0
   13.9969    9.5436   -4.6306 C   0  0  0  0  0  0  0  0  0  0  0  0
   13.4330    8.6788   -3.5670 C   0  0  0  0  0  0  0  0  0  0  0  0
   14.1236   10.9001   -4.3865 N   0  0  0  0  0  0  0  0  0  0  0  0
   14.7045   11.4783   -5.4158 C   0  0  0  0  0  0  0  0  0  0  0  0
   15.0531   10.4767   -6.7518 S   0  0  0  0  0  0  0  0  0  0  0  0
   13.4633    7.7004   -7.6638 C   0  0  0  0  0  0  0  0  0  0  0  0
   12.5154    7.1716   -9.8295 H   0  0  0  0  0  0  0  0  0  0  0  0
   12.9724    3.9923   -9.1119 H   0  0  0  0  0  0  0  0  0  0  0  0
   14.7248    3.9970   -9.2827 H   0  0  0  0  0  0  0  0  0  0  0  0
   13.3017    2.8826   -6.8909 H   0  0  0  0  0  0  0  0  0  0  0  0
   14.9200   -0.3244   -7.6789 H   0  0  0  0  0  0  0  0  0  0  0  0
   15.7365    0.8156   -3.3779 H   0  0  0  0  0  0  0  0  0  0  0  0
   18.6002    0.5931   -4.4485 H   0  0  0  0  0  0  0  0  0  0  0  0
   19.3174    0.8472   -2.0730 H   0  0  0  0  0  0  0  0  0  0  0  0
   18.4885   -0.6782   -2.3428 H   0  0  0  0  0  0  0  0  0  0  0  0
   17.6415    0.6560   -1.5450 H   0  0  0  0  0  0  0  0  0  0  0  0
   18.8745    2.8456   -3.4267 H   0  0  0  0  0  0  0  0  0  0  0  0
   17.1843    2.8380   -2.9368 H   0  0  0  0  0  0  0  0  0  0  0  0
   17.6037    2.8640   -4.6545 H   0  0  0  0  0  0  0  0  0  0  0  0
   17.5400   -4.6986   -5.7740 H   0  0  0  0  0  0  0  0  0  0  0  0
   16.7004   -6.6787   -4.5342 H   0  0  0  0  0  0  0  0  0  0  0  0
   15.3560   -6.3898   -2.4881 H   0  0  0  0  0  0  0  0  0  0  0  0
   14.8455   -4.1364   -1.6039 H   0  0  0  0  0  0  0  0  0  0  0  0
   16.5373   -1.8535   -5.9103 H   0  0  0  0  0  0  0  0  0  0  0  0
   18.0739   -1.8440   -4.9622 H   0  0  0  0  0  0  0  0  0  0  0  0
   13.9165   -0.2610   -4.0849 H   0  0  0  0  0  0  0  0  0  0  0  0
   13.1269    1.2132   -4.6787 H   0  0  0  0  0  0  0  0  0  0  0  0
   11.6551   -0.5790   -5.5266 H   0  0  0  0  0  0  0  0  0  0  0  0
   13.1400   -2.3148   -5.1099 H   0  0  0  0  0  0  0  0  0  0  0  0
   12.1957    1.0024   -7.2489 H   0  0  0  0  0  0  0  0  0  0  0  0
   12.5687   -0.5420   -8.0207 H   0  0  0  0  0  0  0  0  0  0  0  0
   15.4361    4.6677   -6.3197 H   0  0  0  0  0  0  0  0  0  0  0  0
   15.6305    6.8353   -5.2162 H   0  0  0  0  0  0  0  0  0  0  0  0
   13.1989    9.2637   -2.6719 H   0  0  0  0  0  0  0  0  0  0  0  0
   14.1380    7.8916   -3.2853 H   0  0  0  0  0  0  0  0  0  0  0  0
   12.5147    8.1919   -3.9066 H   0  0  0  0  0  0  0  0  0  0  0  0
   14.9385   12.5333   -5.4315 H   0  0  0  0  0  0  0  0  0  0  0  0
   12.8976    8.5418   -8.0488 H   0  0  0  0  0  0  0  0  0  0  0  0
  1 40  1  0  0  0  0
  1  2  1  0  0  0  0
  2  3  1  0  0  0  0
  2 39  2  0  0  0  0
  3 30  2  0  0  0  0
  3  4  1  0  0  0  0
  4 41  1  0  0  0  0
  4 42  1  0  0  0  0
  4  5  1  0  0  0  0
  5 43  1  0  0  0  0
  5  6  1  0  0  0  0
  6  7  2  0  0  0  0
  8  6  1  0  0  0  0
  8 44  1  0  0  0  0
  8 29  1  0  0  0  0
  8  9  1  0  0  0  0
  9 26  1  0  0  0  0
  9 10  1  0  0  0  0
 10 11  2  0  0  0  0
 12 10  1  0  0  0  0
 12 45  1  0  0  0  0
 12 13  1  0  0  0  0
 12 16  1  0  0  0  0
 13 46  1  0  0  0  0
 13 14  1  0  0  0  0
 13 15  1  0  0  0  0
 14 47  1  0  0  0  0
 14 48  1  0  0  0  0
 14 49  1  0  0  0  0
 15 50  1  0  0  0  0
 15 51  1  0  0  0  0
 15 52  1  0  0  0  0
 16 17  1  0  0  0  0
 16 25  1  0  0  0  0
 17 18  2  0  0  0  0
 17 19  1  0  0  0  0
 19 20  2  0  0  0  0
 19 24  1  0  0  0  0
 20 25  1  0  0  0  0
 20 21  1  0  0  0  0
 21 53  1  0  0  0  0
 21 22  2  0  0  0  0
 22 54  1  0  0  0  0
 22 23  1  0  0  0  0
 23 55  1  0  0  0  0
 23 24  2  0  0  0  0
 24 56  1  0  0  0  0
 25 57  1  0  0  0  0
 25 58  1  0  0  0  0
 27 26  1  0  0  0  0
 26 59  1  0  0  0  0
 26 60  1  0  0  0  0
 27 29  1  0  0  0  0
 27 61  1  0  0  0  0
 27 28  1  0  0  0  0
 28 62  1  0  0  0  0
 29 63  1  0  0  0  0
 29 64  1  0  0  0  0
 30 65  1  0  0  0  0
 30 31  1  0  0  0  0
 31 66  1  0  0  0  0
 31 32  2  0  0  0  0
 32 39  1  0  0  0  0
 32 33  1  0  0  0  0
 33 34  2  0  0  0  0
 33 38  1  0  0  0  0
 34 35  1  0  0  0  0
 34 36  1  0  0  0  0
 35 67  1  0  0  0  0
 35 68  1  0  0  0  0
 35 69  1  0  0  0  0
 36 37  2  0  0  0  0
 37 70  1  0  0  0  0
 37 38  1  0  0  0  0
 39 71  1  0  0  0  0
M  ZZC   1 o1
M  ZZC   2 c1
M  ZZC   3 c2
M  ZZC   4 c3
M  ZZC   5 n1
M  ZZC   6 c4
M  ZZC   7 o2
M  ZZC   8 c5
M  ZZC   9 n2
M  ZZC  10 c6
M  ZZC  11 o3
M  ZZC  12 c7
M  ZZC  13 c8
M  ZZC  14 c9
M  ZZC  15 c10
M  ZZC  16 n3
M  ZZC  17 c11
M  ZZC  18 o4
M  ZZC  19 c12
M  ZZC  20 c13
M  ZZC  21 c14
M  ZZC  22 c15
M  ZZC  23 c16
M  ZZC  24 c17
M  ZZC  25 c18
M  ZZC  26 c19
M  ZZC  27 c20
M  ZZC  28 o5
M  ZZC  29 c21
M  ZZC  30 c22
M  ZZC  31 c23
M  ZZC  32 c24
M  ZZC  33 c25
M  ZZC  34 c26
M  ZZC  35 c27
M  ZZC  36 n4
M  ZZC  37 c28
M  ZZC  38 s1
M  ZZC  39 c29
M  ZZC  40 h11
M  ZZC  41 h31
M  ZZC  42 h32
M  ZZC  43 h01
M  ZZC  44 h51
M  ZZC  45 h71
M  ZZC  46 h81
M  ZZC  47 h91
M  ZZC  48 h92
M  ZZC  49 h93
M  ZZC  50 h101
M  ZZC  51 h102
M  ZZC  52 h103
M  ZZC  53 h141
M  ZZC  54 h151
M  ZZC  55 h161
M  ZZC  56 h171
M  ZZC  57 h181
M  ZZC  58 h182
M  ZZC  59 h191
M  ZZC  60 h192
M  ZZC  61 h201
M  ZZC  62 h02
M  ZZC  63 h211
M  ZZC  64 h212
M  ZZC  65 h221
M  ZZC  66 h231
M  ZZC  67 h271
M  ZZC  68 h272
M  ZZC  69 h273
M  ZZC  70 h281
M  ZZC  71 h291
M  ZZM   1 6
M  ZZI   1 62
M  ZZM   2 37
M  ZZI   2 124
M  ZZM   3 37
M  ZZI   3 124
M  ZZM   4 1
M  ZZI   4 112
M  ZZM   5 10
M  ZZI   5 211
M  ZZM   6 3
M  ZZI   6 121
M  ZZM   7 7
M  ZZI   7 81
M  ZZM   8 1
M  ZZI   8 113
M  ZZM   9 10
M  ZZI   9 192
M  ZZM  10 3
M  ZZI  10 121
M  ZZM  11 7
M  ZZI  11 81
M  ZZM  12 1
M  ZZI  12 113
M  ZZM  13 1
M  ZZI  13 113
M  ZZM  14 1
M  ZZI  14 111
M  ZZM  15 1
M  ZZI  15 111
M  ZZM  16 10
M  ZZI  16 192
M  ZZM  17 3
M  ZZI  17 121
M  ZZM  18 7
M  ZZI  18 81
M  ZZM  19 37
M  ZZI  19 124
M  ZZM  20 37
M  ZZI  20 124
M  ZZM  21 37
M  ZZI  21 125
M  ZZM  22 37
M  ZZI  22 125
M  ZZM  23 37
M  ZZI  23 125
M  ZZM  24 37
M  ZZI  24 125
M  ZZM  25 1
M  ZZI  25 112
M  ZZM  26 1
M  ZZI  26 112
M  ZZM  27 1
M  ZZI  27 113
M  ZZM  28 6
M  ZZI  28 60
M  ZZM  29 1
M  ZZI  29 112
M  ZZM  30 37
M  ZZI  30 125
M  ZZM  31 37
M  ZZI  31 125
M  ZZM  32 37
M  ZZI  32 124
M  ZZM  33 63
M  ZZI  33 104
M  ZZM  34 64
M  ZZI  34 105
M  ZZM  35 1
M  ZZI  35 111
M  ZZM  36 66
M  ZZI  36 222
M  ZZM  37 63
M  ZZI  37 104
M  ZZM  38 44
M  ZZI  38 248
M  ZZM  39 37
M  ZZI  39 125
M  ZZM  40 29
M  ZZI  40 27
M  ZZM  41 5
M  ZZI  41 1
M  ZZM  42 5
M  ZZI  42 1
M  ZZM  43 28
M  ZZI  43 11
M  ZZM  44 5
M  ZZI  44 1
M  ZZM  45 5
M  ZZI  45 1
M  ZZM  46 5
M  ZZI  46 1
M  ZZM  47 5
M  ZZI  47 1
M  ZZM  48 5
M  ZZI  48 1
M  ZZM  49 5
M  ZZI  49 1
M  ZZM  50 5
M  ZZI  50 1
M  ZZM  51 5
M  ZZI  51 1
M  ZZM  52 5
M  ZZI  52 1
M  ZZM  53 5
M  ZZI  53 1
M  ZZM  54 5
M  ZZI  54 1
M  ZZM  55 5
M  ZZI  55 1
M  ZZM  56 5
M  ZZI  56 1
M  ZZM  57 5
M  ZZI  57 1
M  ZZM  58 5
M  ZZI  58 1
M  ZZM  59 5
M  ZZI  59 1
M  ZZM  60 5
M  ZZI  60 1
M  ZZM  61 5
M  ZZI  61 1
M  ZZM  62 21
M  ZZI  62 20
M  ZZM  63 5
M  ZZI  63 1
M  ZZM  64 5
M  ZZI  64 1
M  ZZM  65 5
M  ZZI  65 1
M  ZZM  66 5
M  ZZI  66 1
M  ZZM  67 5
M  ZZI  67 1
M  ZZM  68 5
M  ZZI  68 1
M  ZZM  69 5
M  ZZI  69 1
M  ZZM  70 5
M  ZZI  70 1
M  ZZM  71 5
M  ZZI  71 1
M  END
> <IX>
1

> <NAME>
VHL_5EKO_3.pdb

> <Score>
-13.025263

> <Natom>
71

> <Nflex>
8

> <Hbond>
-8.507842

> <Hphob>
-5.70649

> <VwInt>
-30.115769

> <Dsolv>
25.807267

> <SolEl>
19.144361

> <Eintl>
9.413274

> <RecConf>
ND

> <projPath>
VHL_maps/

> <NAME_>
VHL_5EKO_3.pdb

$$$$
