VHL_5EHR_4.pdb
  MOLSOFT 04032206413D

 68 70  0  0  1  0  0  0  0  0999 V2000
    3.7603   -4.0400  -16.1324 C   0  0  0  0  0  0  0  0  0  0  0  0
    3.7199   -2.5437  -15.9874 C   0  0  0  0  0  0  0  0  0  0  0  0
    3.2030   -1.9994  -15.0234 O   0  0  0  0  0  0  0  0  0  0  0  0
    4.3491   -1.8840  -17.0235 N   0  0  0  0  0  0  0  0  0  0  0  0
    4.5030   -0.4258  -17.0570 C   0  0  2  0  0  0  0  0  0  0  0  0
    3.4951    0.2585  -18.0368 C   0  0  0  0  0  0  0  0  0  0  0  0
    2.0675    0.1465  -17.4760 C   0  0  0  0  0  0  0  0  0  0  0  0
    3.4863   -0.3666  -19.4438 C   0  0  0  0  0  0  0  0  0  0  0  0
    3.8233    1.7527  -18.1716 C   0  0  0  0  0  0  0  0  0  0  0  0
    5.9854   -0.1636  -17.3831 C   0  0  0  0  0  0  0  0  0  0  0  0
    6.3711    0.0458  -18.5253 O   0  0  0  0  0  0  0  0  0  0  0  0
    6.8984   -0.2455  -16.3317 N   0  0  0  0  0  0  0  0  0  0  0  0
    8.3058    0.0539  -16.5516 C   0  0  2  0  0  0  0  0  0  0  0  0
    9.0593   -1.0293  -17.3274 C   0  0  0  0  0  0  0  0  0  0  0  0
    8.7141   -2.2024  -17.3589 O   0  0  0  0  0  0  0  0  0  0  0  0
   10.1793   -0.5308  -17.9692 N   0  0  0  0  0  0  0  0  0  0  0  0
   10.9512   -1.2803  -18.9446 C   0  0  1  0  0  0  0  0  0  0  0  0
   11.0772   -0.4439  -20.2167 C   0  0  0  0  0  0  0  0  0  0  0  0
   12.3163   -1.7002  -18.4347 C   0  0  0  0  0  0  0  0  0  0  0  0
   12.8987   -1.1534  -17.2912 C   0  0  0  0  0  0  0  0  0  0  0  0
   14.1391   -1.5808  -16.8529 C   0  0  0  0  0  0  0  0  0  0  0  0
   14.8379   -2.5595  -17.5477 C   0  0  0  0  0  0  0  0  0  0  0  0
   16.1116   -3.0409  -17.0473 C   0  0  0  0  0  0  0  0  0  0  0  0
   16.3829   -3.8550  -15.9607 C   0  0  0  0  0  0  0  0  0  0  0  0
   15.3894   -4.5171  -15.0942 C   0  0  0  0  0  0  0  0  0  0  0  0
   17.7201   -4.0429  -15.6879 N   0  0  0  0  0  0  0  0  0  0  0  0
   18.4384   -3.4693  -16.6285 C   0  0  0  0  0  0  0  0  0  0  0  0
   17.5760   -2.6253  -17.8384 S   0  0  0  0  0  0  0  0  0  0  0  0
   14.2776   -3.0943  -18.6980 C   0  0  0  0  0  0  0  0  0  0  0  0
   13.0360   -2.6685  -19.1332 C   0  0  0  0  0  0  0  0  0  0  0  0
    8.8887    0.2420  -15.1604 C   0  0  0  0  0  0  0  0  0  0  0  0
    8.0098   -0.6425  -14.3113 C   0  0  1  0  0  0  0  0  0  0  0  0
    8.0690   -0.2521  -12.9444 O   0  0  0  0  0  0  0  0  0  0  0  0
    6.6314   -0.4729  -14.9248 C   0  0  0  0  0  0  0  0  0  0  0  0
    3.5428   -4.3322  -17.1642 H   0  0  0  0  0  0  0  0  0  0  0  0
    3.0154   -4.4958  -15.4737 H   0  0  0  0  0  0  0  0  0  0  0  0
    4.7544   -4.4025  -15.8553 H   0  0  0  0  0  0  0  0  0  0  0  0
    4.7611   -2.4304  -17.7741 H   0  0  0  0  0  0  0  0  0  0  0  0
    4.3136   -0.0348  -16.0516 H   0  0  0  0  0  0  0  0  0  0  0  0
    1.7356   -0.8931  -17.3998 H   0  0  0  0  0  0  0  0  0  0  0  0
    1.3437    0.6692  -18.1101 H   0  0  0  0  0  0  0  0  0  0  0  0
    1.9942    0.5903  -16.4810 H   0  0  0  0  0  0  0  0  0  0  0  0
    2.7627    0.1082  -20.1105 H   0  0  0  0  0  0  0  0  0  0  0  0
    3.2187   -1.4278  -19.3990 H   0  0  0  0  0  0  0  0  0  0  0  0
    4.4681   -0.3058  -19.9231 H   0  0  0  0  0  0  0  0  0  0  0  0
    3.0343    2.2905  -18.7013 H   0  0  0  0  0  0  0  0  0  0  0  0
    4.7556    1.9069  -18.7238 H   0  0  0  0  0  0  0  0  0  0  0  0
    3.9418    2.2377  -17.2003 H   0  0  0  0  0  0  0  0  0  0  0  0
    8.3579    0.9738  -17.1350 H   0  0  0  0  0  0  0  0  0  0  0  0
   10.4845    0.4161  -17.7693 H   0  0  0  0  0  0  0  0  0  0  0  0
   10.3844   -2.1880  -19.1802 H   0  0  0  0  0  0  0  0  0  0  0  0
   11.5825   -1.0096  -21.0061 H   0  0  0  0  0  0  0  0  0  0  0  0
   11.6487    0.4737  -20.0462 H   0  0  0  0  0  0  0  0  0  0  0  0
   10.0935   -0.1549  -20.6027 H   0  0  0  0  0  0  0  0  0  0  0  0
   12.3889   -0.3897  -16.7141 H   0  0  0  0  0  0  0  0  0  0  0  0
   14.5553   -1.1501  -15.9456 H   0  0  0  0  0  0  0  0  0  0  0  0
   15.7427   -4.5881  -14.0648 H   0  0  0  0  0  0  0  0  0  0  0  0
   15.1867   -5.5290  -15.4543 H   0  0  0  0  0  0  0  0  0  0  0  0
   14.4569   -3.9550  -15.0790 H   0  0  0  0  0  0  0  0  0  0  0  0
   19.5161   -3.5178  -16.6436 H   0  0  0  0  0  0  0  0  0  0  0  0
   14.7971   -3.8677  -19.2559 H   0  0  0  0  0  0  0  0  0  0  0  0
   12.6201   -3.1180  -20.0305 H   0  0  0  0  0  0  0  0  0  0  0  0
    9.9459   -0.0298  -15.0732 H   0  0  0  0  0  0  0  0  0  0  0  0
    8.7905    1.2803  -14.8294 H   0  0  0  0  0  0  0  0  0  0  0  0
    8.3333   -1.6774  -14.4077 H   0  0  0  0  0  0  0  0  0  0  0  0
    8.8922   -0.6335  -12.5870 H   0  0  0  0  0  0  0  0  0  0  0  0
    6.0950    0.3878  -14.5137 H   0  0  0  0  0  0  0  0  0  0  0  0
    6.0072   -1.3567  -14.7808 H   0  0  0  0  0  0  0  0  0  0  0  0
  1 35  1  0  0  0  0
  1 36  1  0  0  0  0
  1 37  1  0  0  0  0
  1  2  1  0  0  0  0
  2  3  2  0  0  0  0
  2  4  1  0  0  0  0
  4 38  1  0  0  0  0
  5  4  1  0  0  0  0
  5 39  1  0  0  0  0
  5  6  1  0  0  0  0
  5 10  1  0  0  0  0
  6  7  1  0  0  0  0
  6  8  1  0  0  0  0
  6  9  1  0  0  0  0
  7 40  1  0  0  0  0
  7 41  1  0  0  0  0
  7 42  1  0  0  0  0
  8 43  1  0  0  0  0
  8 44  1  0  0  0  0
  8 45  1  0  0  0  0
  9 46  1  0  0  0  0
  9 47  1  0  0  0  0
  9 48  1  0  0  0  0
 10 11  2  0  0  0  0
 10 12  1  0  0  0  0
 12 34  1  0  0  0  0
 13 12  1  0  0  0  0
 13 31  1  0  0  0  0
 13 49  1  0  0  0  0
 13 14  1  0  0  0  0
 14 15  2  0  0  0  0
 14 16  1  0  0  0  0
 16 50  1  0  0  0  0
 17 16  1  0  0  0  0
 17 51  1  0  0  0  0
 17 18  1  0  0  0  0
 17 19  1  0  0  0  0
 18 52  1  0  0  0  0
 18 53  1  0  0  0  0
 18 54  1  0  0  0  0
 19 20  1  0  0  0  0
 19 30  2  0  0  0  0
 20 55  1  0  0  0  0
 20 21  2  0  0  0  0
 21 56  1  0  0  0  0
 21 22  1  0  0  0  0
 22 29  2  0  0  0  0
 22 23  1  0  0  0  0
 23 24  2  0  0  0  0
 23 28  1  0  0  0  0
 24 25  1  0  0  0  0
 24 26  1  0  0  0  0
 25 57  1  0  0  0  0
 25 58  1  0  0  0  0
 25 59  1  0  0  0  0
 26 27  2  0  0  0  0
 27 60  1  0  0  0  0
 27 28  1  0  0  0  0
 29 61  1  0  0  0  0
 29 30  1  0  0  0  0
 30 62  1  0  0  0  0
 32 31  1  0  0  0  0
 31 63  1  0  0  0  0
 31 64  1  0  0  0  0
 32 34  1  0  0  0  0
 32 65  1  0  0  0  0
 32 33  1  0  0  0  0
 33 66  1  0  0  0  0
 34 67  1  0  0  0  0
 34 68  1  0  0  0  0
M  ZZC   1 c1
M  ZZC   2 c2
M  ZZC   3 o1
M  ZZC   4 n1
M  ZZC   5 c3
M  ZZC   6 c4
M  ZZC   7 c5
M  ZZC   8 c6
M  ZZC   9 c7
M  ZZC  10 c8
M  ZZC  11 o2
M  ZZC  12 n2
M  ZZC  13 c9
M  ZZC  14 c10
M  ZZC  15 o3
M  ZZC  16 n3
M  ZZC  17 c11
M  ZZC  18 c12
M  ZZC  19 c13
M  ZZC  20 c14
M  ZZC  21 c15
M  ZZC  22 c16
M  ZZC  23 c17
M  ZZC  24 c18
M  ZZC  25 c19
M  ZZC  26 n4
M  ZZC  27 c20
M  ZZC  28 s1
M  ZZC  29 c21
M  ZZC  30 c22
M  ZZC  31 c23
M  ZZC  32 c24
M  ZZC  33 o4
M  ZZC  34 c25
M  ZZC  35 h11
M  ZZC  36 h12
M  ZZC  37 h13
M  ZZC  38 h01
M  ZZC  39 h31
M  ZZC  40 h51
M  ZZC  41 h52
M  ZZC  42 h53
M  ZZC  43 h61
M  ZZC  44 h62
M  ZZC  45 h63
M  ZZC  46 h71
M  ZZC  47 h72
M  ZZC  48 h73
M  ZZC  49 h91
M  ZZC  50 h02
M  ZZC  51 h111
M  ZZC  52 h121
M  ZZC  53 h122
M  ZZC  54 h123
M  ZZC  55 h141
M  ZZC  56 h151
M  ZZC  57 h191
M  ZZC  58 h192
M  ZZC  59 h193
M  ZZC  60 h201
M  ZZC  61 h211
M  ZZC  62 h221
M  ZZC  63 h231
M  ZZC  64 h232
M  ZZC  65 h241
M  ZZC  66 h41
M  ZZC  67 h251
M  ZZC  68 h252
M  ZZM   1 1
M  ZZI   1 111
M  ZZM   2 3
M  ZZI   2 121
M  ZZM   3 7
M  ZZI   3 81
M  ZZM   4 10
M  ZZI   4 211
M  ZZM   5 1
M  ZZI   5 113
M  ZZM   6 1
M  ZZI   6 110
M  ZZM   7 1
M  ZZI   7 111
M  ZZM   8 1
M  ZZI   8 111
M  ZZM   9 1
M  ZZI   9 111
M  ZZM  10 3
M  ZZI  10 121
M  ZZM  11 7
M  ZZI  11 81
M  ZZM  12 10
M  ZZI  12 192
M  ZZM  13 1
M  ZZI  13 113
M  ZZM  14 3
M  ZZI  14 121
M  ZZM  15 7
M  ZZI  15 81
M  ZZM  16 10
M  ZZI  16 211
M  ZZM  17 1
M  ZZI  17 113
M  ZZM  18 1
M  ZZI  18 111
M  ZZM  19 37
M  ZZI  19 124
M  ZZM  20 37
M  ZZI  20 125
M  ZZM  21 37
M  ZZI  21 125
M  ZZM  22 37
M  ZZI  22 124
M  ZZM  23 63
M  ZZI  23 104
M  ZZM  24 64
M  ZZI  24 105
M  ZZM  25 1
M  ZZI  25 111
M  ZZM  26 66
M  ZZI  26 222
M  ZZM  27 63
M  ZZI  27 104
M  ZZM  28 44
M  ZZI  28 248
M  ZZM  29 37
M  ZZI  29 125
M  ZZM  30 37
M  ZZI  30 125
M  ZZM  31 1
M  ZZI  31 112
M  ZZM  32 1
M  ZZI  32 113
M  ZZM  33 6
M  ZZI  33 60
M  ZZM  34 1
M  ZZI  34 112
M  ZZM  35 5
M  ZZI  35 1
M  ZZM  36 5
M  ZZI  36 1
M  ZZM  37 5
M  ZZI  37 1
M  ZZM  38 28
M  ZZI  38 11
M  ZZM  39 5
M  ZZI  39 1
M  ZZM  40 5
M  ZZI  40 1
M  ZZM  41 5
M  ZZI  41 1
M  ZZM  42 5
M  ZZI  42 1
M  ZZM  43 5
M  ZZI  43 1
M  ZZM  44 5
M  ZZI  44 1
M  ZZM  45 5
M  ZZI  45 1
M  ZZM  46 5
M  ZZI  46 1
M  ZZM  47 5
M  ZZI  47 1
M  ZZM  48 5
M  ZZI  48 1
M  ZZM  49 5
M  ZZI  49 1
M  ZZM  50 28
M  ZZI  50 11
M  ZZM  51 5
M  ZZI  51 1
M  ZZM  52 5
M  ZZI  52 1
M  ZZM  53 5
M  ZZI  53 1
M  ZZM  54 5
M  ZZI  54 1
M  ZZM  55 5
M  ZZI  55 1
M  ZZM  56 5
M  ZZI  56 1
M  ZZM  57 5
M  ZZI  57 1
M  ZZM  58 5
M  ZZI  58 1
M  ZZM  59 5
M  ZZI  59 1
M  ZZM  60 5
M  ZZI  60 1
M  ZZM  61 5
M  ZZI  61 1
M  ZZM  62 5
M  ZZI  62 1
M  ZZM  63 5
M  ZZI  63 1
M  ZZM  64 5
M  ZZI  64 1
M  ZZM  65 5
M  ZZI  65 1
M  ZZM  66 21
M  ZZI  66 20
M  ZZM  67 5
M  ZZI  67 1
M  ZZM  68 5
M  ZZI  68 1
M  END
> <IX>
1

> <NAME>
VHL_5EHR_4.pdb

> <Score>
-6.490157

> <Natom>
68

> <Nflex>
8

> <Hbond>
-3.936562

> <Hphob>
-6.564341

> <VwInt>
-21.349503

> <Dsolv>
16.876021

> <SolEl>
9.348469

> <Eintl>
9.316584

> <RecConf>
ND

> <projPath>
VHL_maps/

> <NAME_>
VHL_5EHR_4.pdb

$$$$
