VHL_3K5V_1.pdb
  MOLSOFT 04032206373D

 65 67  0  0  1  0  0  0  0  0999 V2000
   18.3559   -6.8346   -5.3308 C   0  0  0  0  0  0  0  0  0  0  0  0
   17.1636   -5.9179   -5.2853 C   0  0  0  0  0  0  0  0  0  0  0  0
   16.0630   -6.3064   -5.6417 O   0  0  0  0  0  0  0  0  0  0  0  0
   17.4451   -4.6605   -4.7847 N   0  0  0  0  0  0  0  0  0  0  0  0
   16.4595   -3.5796   -4.6638 C   0  0  1  0  0  0  0  0  0  0  0  0
   15.8391   -3.4744   -3.2326 C   0  0  0  0  0  0  0  0  0  0  0  0
   14.6110   -2.5511   -3.2561 C   0  0  0  0  0  0  0  0  0  0  0  0
   16.8410   -2.9252   -2.2035 C   0  0  0  0  0  0  0  0  0  0  0  0
   15.3664   -4.8493   -2.7329 C   0  0  0  0  0  0  0  0  0  0  0  0
   17.1604   -2.2819   -5.1117 C   0  0  0  0  0  0  0  0  0  0  0  0
   18.3091   -2.0451   -4.7688 O   0  0  0  0  0  0  0  0  0  0  0  0
   16.4442   -1.3430   -5.8602 N   0  0  0  0  0  0  0  0  0  0  0  0
   17.0607   -0.0612   -6.1977 C   0  0  2  0  0  0  0  0  0  0  0  0
   17.1933    0.8906   -5.0108 C   0  0  0  0  0  0  0  0  0  0  0  0
   18.2466    1.4666   -4.7758 O   0  0  0  0  0  0  0  0  0  0  0  0
   16.0080    1.1564   -4.3461 N   0  0  0  0  0  0  0  0  0  0  0  0
   15.8709    2.2676   -3.4242 C   0  0  0  0  0  0  0  0  0  0  0  0
   15.3523    3.5064   -4.1178 C   0  0  0  0  0  0  0  0  0  0  0  0
   14.2089    4.1584   -3.6644 C   0  0  0  0  0  0  0  0  0  0  0  0
   13.7437    5.3011   -4.2983 C   0  0  0  0  0  0  0  0  0  0  0  0
   14.4013    5.8196   -5.4110 C   0  0  0  0  0  0  0  0  0  0  0  0
   13.9357    7.0216   -6.0900 C   0  0  0  0  0  0  0  0  0  0  0  0
   13.6121    7.2467   -7.4237 C   0  0  0  0  0  0  0  0  0  0  0  0
   13.5949    6.2543   -8.5240 C   0  0  0  0  0  0  0  0  0  0  0  0
   13.2902    8.5527   -7.7328 N   0  0  0  0  0  0  0  0  0  0  0  0
   13.3671    9.2920   -6.6496 C   0  0  0  0  0  0  0  0  0  0  0  0
   13.7750    8.4854   -5.2041 S   0  0  0  0  0  0  0  0  0  0  0  0
   15.5446    5.1735   -5.8601 C   0  0  0  0  0  0  0  0  0  0  0  0
   16.0187    4.0473   -5.2155 C   0  0  0  0  0  0  0  0  0  0  0  0
   16.1610    0.5541   -7.2700 C   0  0  0  0  0  0  0  0  0  0  0  0
   15.4425   -0.6339   -7.8729 C   0  0  1  0  0  0  0  0  0  0  0  0
   16.2272   -1.1921   -8.9345 O   0  0  0  0  0  0  0  0  0  0  0  0
   15.3063   -1.6163   -6.7161 C   0  0  0  0  0  0  0  0  0  0  0  0
   19.2951   -6.2736   -5.3122 H   0  0  0  0  0  0  0  0  0  0  0  0
   18.3244   -7.4189   -6.2547 H   0  0  0  0  0  0  0  0  0  0  0  0
   18.3163   -7.5112   -4.4741 H   0  0  0  0  0  0  0  0  0  0  0  0
   18.3968   -4.4620   -4.4981 H   0  0  0  0  0  0  0  0  0  0  0  0
   15.6719   -3.8070   -5.3698 H   0  0  0  0  0  0  0  0  0  0  0  0
   14.8753   -1.5240   -3.5182 H   0  0  0  0  0  0  0  0  0  0  0  0
   14.1211   -2.5108   -2.2777 H   0  0  0  0  0  0  0  0  0  0  0  0
   13.8645   -2.8975   -3.9779 H   0  0  0  0  0  0  0  0  0  0  0  0
   16.4241   -2.9472   -1.1913 H   0  0  0  0  0  0  0  0  0  0  0  0
   17.1140   -1.8858   -2.4089 H   0  0  0  0  0  0  0  0  0  0  0  0
   17.7629   -3.5114   -2.1854 H   0  0  0  0  0  0  0  0  0  0  0  0
   14.8721   -4.7747   -1.7594 H   0  0  0  0  0  0  0  0  0  0  0  0
   16.1961   -5.5508   -2.6099 H   0  0  0  0  0  0  0  0  0  0  0  0
   14.6485   -5.2981   -3.4219 H   0  0  0  0  0  0  0  0  0  0  0  0
   18.0624   -0.2537   -6.5853 H   0  0  0  0  0  0  0  0  0  0  0  0
   15.1795    0.6192   -4.5741 H   0  0  0  0  0  0  0  0  0  0  0  0
   15.1785    1.9423   -2.6408 H   0  0  0  0  0  0  0  0  0  0  0  0
   16.8347    2.4844   -2.9509 H   0  0  0  0  0  0  0  0  0  0  0  0
   13.6654    3.7791   -2.8038 H   0  0  0  0  0  0  0  0  0  0  0  0
   12.8460    5.7817   -3.9212 H   0  0  0  0  0  0  0  0  0  0  0  0
   14.6050    6.0894   -8.9096 H   0  0  0  0  0  0  0  0  0  0  0  0
   12.9716    6.6014   -9.3530 H   0  0  0  0  0  0  0  0  0  0  0  0
   13.1921    5.2940   -8.1896 H   0  0  0  0  0  0  0  0  0  0  0  0
   13.1832   10.3554   -6.6576 H   0  0  0  0  0  0  0  0  0  0  0  0
   16.0963    5.5602   -6.7121 H   0  0  0  0  0  0  0  0  0  0  0  0
   16.9314    3.5928   -5.5865 H   0  0  0  0  0  0  0  0  0  0  0  0
   15.4264    1.2456   -6.8450 H   0  0  0  0  0  0  0  0  0  0  0  0
   16.7471    1.1127   -8.0062 H   0  0  0  0  0  0  0  0  0  0  0  0
   14.4723   -0.3532   -8.2846 H   0  0  0  0  0  0  0  0  0  0  0  0
   17.1619   -1.1450   -8.6607 H   0  0  0  0  0  0  0  0  0  0  0  0
   15.3161   -2.6528   -7.0613 H   0  0  0  0  0  0  0  0  0  0  0  0
   14.4017   -1.4202   -6.1315 H   0  0  0  0  0  0  0  0  0  0  0  0
  1 34  1  0  0  0  0
  1 35  1  0  0  0  0
  1 36  1  0  0  0  0
  1  2  1  0  0  0  0
  2  3  2  0  0  0  0
  2  4  1  0  0  0  0
  4 37  1  0  0  0  0
  5  4  1  0  0  0  0
  5 38  1  0  0  0  0
  5  6  1  0  0  0  0
  5 10  1  0  0  0  0
  6  7  1  0  0  0  0
  6  8  1  0  0  0  0
  6  9  1  0  0  0  0
  7 39  1  0  0  0  0
  7 40  1  0  0  0  0
  7 41  1  0  0  0  0
  8 42  1  0  0  0  0
  8 43  1  0  0  0  0
  8 44  1  0  0  0  0
  9 45  1  0  0  0  0
  9 46  1  0  0  0  0
  9 47  1  0  0  0  0
 10 11  2  0  0  0  0
 10 12  1  0  0  0  0
 12 33  1  0  0  0  0
 13 12  1  0  0  0  0
 13 30  1  0  0  0  0
 13 48  1  0  0  0  0
 13 14  1  0  0  0  0
 14 15  2  0  0  0  0
 14 16  1  0  0  0  0
 16 49  1  0  0  0  0
 16 17  1  0  0  0  0
 17 50  1  0  0  0  0
 17 51  1  0  0  0  0
 17 18  1  0  0  0  0
 18 19  1  0  0  0  0
 18 29  2  0  0  0  0
 19 52  1  0  0  0  0
 19 20  2  0  0  0  0
 20 53  1  0  0  0  0
 20 21  1  0  0  0  0
 21 28  2  0  0  0  0
 21 22  1  0  0  0  0
 22 23  2  0  0  0  0
 22 27  1  0  0  0  0
 23 24  1  0  0  0  0
 23 25  1  0  0  0  0
 24 54  1  0  0  0  0
 24 55  1  0  0  0  0
 24 56  1  0  0  0  0
 25 26  2  0  0  0  0
 26 57  1  0  0  0  0
 26 27  1  0  0  0  0
 28 58  1  0  0  0  0
 28 29  1  0  0  0  0
 29 59  1  0  0  0  0
 31 30  1  0  0  0  0
 30 60  1  0  0  0  0
 30 61  1  0  0  0  0
 31 33  1  0  0  0  0
 31 62  1  0  0  0  0
 31 32  1  0  0  0  0
 32 63  1  0  0  0  0
 33 64  1  0  0  0  0
 33 65  1  0  0  0  0
M  ZZC   1 c1
M  ZZC   2 c2
M  ZZC   3 o1
M  ZZC   4 n1
M  ZZC   5 c3
M  ZZC   6 c4
M  ZZC   7 c5
M  ZZC   8 c6
M  ZZC   9 c7
M  ZZC  10 c8
M  ZZC  11 o2
M  ZZC  12 n2
M  ZZC  13 c9
M  ZZC  14 c10
M  ZZC  15 o3
M  ZZC  16 n3
M  ZZC  17 c11
M  ZZC  18 c12
M  ZZC  19 c13
M  ZZC  20 c14
M  ZZC  21 c15
M  ZZC  22 c16
M  ZZC  23 c17
M  ZZC  24 c18
M  ZZC  25 n4
M  ZZC  26 c19
M  ZZC  27 s1
M  ZZC  28 c20
M  ZZC  29 c21
M  ZZC  30 c22
M  ZZC  31 c23
M  ZZC  32 o4
M  ZZC  33 c24
M  ZZC  34 h11
M  ZZC  35 h12
M  ZZC  36 h13
M  ZZC  37 h01
M  ZZC  38 h31
M  ZZC  39 h51
M  ZZC  40 h52
M  ZZC  41 h53
M  ZZC  42 h61
M  ZZC  43 h62
M  ZZC  44 h63
M  ZZC  45 h71
M  ZZC  46 h72
M  ZZC  47 h73
M  ZZC  48 h91
M  ZZC  49 h02
M  ZZC  50 h111
M  ZZC  51 h112
M  ZZC  52 h131
M  ZZC  53 h141
M  ZZC  54 h181
M  ZZC  55 h182
M  ZZC  56 h183
M  ZZC  57 h191
M  ZZC  58 h201
M  ZZC  59 h211
M  ZZC  60 h221
M  ZZC  61 h222
M  ZZC  62 h231
M  ZZC  63 h41
M  ZZC  64 h241
M  ZZC  65 h242
M  ZZM   1 1
M  ZZI   1 111
M  ZZM   2 3
M  ZZI   2 121
M  ZZM   3 7
M  ZZI   3 81
M  ZZM   4 10
M  ZZI   4 211
M  ZZM   5 1
M  ZZI   5 113
M  ZZM   6 1
M  ZZI   6 110
M  ZZM   7 1
M  ZZI   7 111
M  ZZM   8 1
M  ZZI   8 111
M  ZZM   9 1
M  ZZI   9 111
M  ZZM  10 3
M  ZZI  10 121
M  ZZM  11 7
M  ZZI  11 81
M  ZZM  12 10
M  ZZI  12 192
M  ZZM  13 1
M  ZZI  13 113
M  ZZM  14 3
M  ZZI  14 121
M  ZZM  15 7
M  ZZI  15 81
M  ZZM  16 10
M  ZZI  16 211
M  ZZM  17 1
M  ZZI  17 112
M  ZZM  18 37
M  ZZI  18 124
M  ZZM  19 37
M  ZZI  19 125
M  ZZM  20 37
M  ZZI  20 125
M  ZZM  21 37
M  ZZI  21 124
M  ZZM  22 63
M  ZZI  22 104
M  ZZM  23 64
M  ZZI  23 105
M  ZZM  24 1
M  ZZI  24 111
M  ZZM  25 66
M  ZZI  25 222
M  ZZM  26 63
M  ZZI  26 104
M  ZZM  27 44
M  ZZI  27 248
M  ZZM  28 37
M  ZZI  28 125
M  ZZM  29 37
M  ZZI  29 125
M  ZZM  30 1
M  ZZI  30 112
M  ZZM  31 1
M  ZZI  31 113
M  ZZM  32 6
M  ZZI  32 60
M  ZZM  33 1
M  ZZI  33 112
M  ZZM  34 5
M  ZZI  34 1
M  ZZM  35 5
M  ZZI  35 1
M  ZZM  36 5
M  ZZI  36 1
M  ZZM  37 28
M  ZZI  37 11
M  ZZM  38 5
M  ZZI  38 1
M  ZZM  39 5
M  ZZI  39 1
M  ZZM  40 5
M  ZZI  40 1
M  ZZM  41 5
M  ZZI  41 1
M  ZZM  42 5
M  ZZI  42 1
M  ZZM  43 5
M  ZZI  43 1
M  ZZM  44 5
M  ZZI  44 1
M  ZZM  45 5
M  ZZI  45 1
M  ZZM  46 5
M  ZZI  46 1
M  ZZM  47 5
M  ZZI  47 1
M  ZZM  48 5
M  ZZI  48 1
M  ZZM  49 28
M  ZZI  49 11
M  ZZM  50 5
M  ZZI  50 1
M  ZZM  51 5
M  ZZI  51 1
M  ZZM  52 5
M  ZZI  52 1
M  ZZM  53 5
M  ZZI  53 1
M  ZZM  54 5
M  ZZI  54 1
M  ZZM  55 5
M  ZZI  55 1
M  ZZM  56 5
M  ZZI  56 1
M  ZZM  57 5
M  ZZI  57 1
M  ZZM  58 5
M  ZZI  58 1
M  ZZM  59 5
M  ZZI  59 1
M  ZZM  60 5
M  ZZI  60 1
M  ZZM  61 5
M  ZZI  61 1
M  ZZM  62 5
M  ZZI  62 1
M  ZZM  63 21
M  ZZI  63 20
M  ZZM  64 5
M  ZZI  64 1
M  ZZM  65 5
M  ZZI  65 1
M  END
> <IX>
1

> <NAME>
VHL_3K5V_1.pdb

> <Score>
-24.152676

> <Natom>
65

> <Nflex>
8

> <Hbond>
-7.915569

> <Hphob>
-6.651527

> <VwInt>
-31.149595

> <Dsolv>
21.149865

> <SolEl>
9.655181

> <Eintl>
7.408355

> <RecConf>
ND

> <projPath>
VHL_maps/

> <NAME_>
VHL_3K5V_1.pdb

$$$$
