VHL_6YOJ_2.pdb
  MOLSOFT 04032206443D

 65 67  0  0  1  0  0  0  0  0999 V2000
   18.1155   -6.6514   -5.1195 C   0  0  0  0  0  0  0  0  0  0  0  0
   16.9013   -5.7776   -4.9603 C   0  0  0  0  0  0  0  0  0  0  0  0
   15.8158   -6.1340   -5.3848 O   0  0  0  0  0  0  0  0  0  0  0  0
   17.1443   -4.6021   -4.2771 N   0  0  0  0  0  0  0  0  0  0  0  0
   16.1362   -3.5627   -4.0104 C   0  0  1  0  0  0  0  0  0  0  0  0
   15.8980   -3.3637   -2.4838 C   0  0  0  0  0  0  0  0  0  0  0  0
   17.1644   -2.8994   -1.7502 C   0  0  0  0  0  0  0  0  0  0  0  0
   15.4338   -4.7008   -1.8943 C   0  0  0  0  0  0  0  0  0  0  0  0
   14.7933   -2.3433   -2.1855 C   0  0  0  0  0  0  0  0  0  0  0  0
   16.6287   -2.3254   -4.7906 C   0  0  0  0  0  0  0  0  0  0  0  0
   17.8234   -2.0571   -4.8475 O   0  0  0  0  0  0  0  0  0  0  0  0
   15.6753   -1.5548   -5.4639 N   0  0  0  0  0  0  0  0  0  0  0  0
   16.0675   -0.6434   -6.5287 C   0  0  2  0  0  0  0  0  0  0  0  0
   16.4499    0.7489   -6.0192 C   0  0  0  0  0  0  0  0  0  0  0  0
   15.9291    1.2675   -5.0409 O   0  0  0  0  0  0  0  0  0  0  0  0
   17.3802    1.3842   -6.8207 N   0  0  0  0  0  0  0  0  0  0  0  0
   17.8302    2.7401   -6.5520 C   0  0  0  0  0  0  0  0  0  0  0  0
   19.2406    3.0196   -7.0137 C   0  0  0  0  0  0  0  0  0  0  0  0
   19.6553    4.3244   -7.2723 C   0  0  0  0  0  0  0  0  0  0  0  0
   20.9649    4.6026   -7.6392 C   0  0  0  0  0  0  0  0  0  0  0  0
   21.8968    3.5788   -7.7558 C   0  0  0  0  0  0  0  0  0  0  0  0
   23.2820    3.8389   -8.1131 C   0  0  0  0  0  0  0  0  0  0  0  0
   24.3494    4.2573   -7.3317 C   0  0  0  0  0  0  0  0  0  0  0  0
   24.3178    4.5881   -5.8891 C   0  0  0  0  0  0  0  0  0  0  0  0
   25.5595    4.3381   -7.9914 N   0  0  0  0  0  0  0  0  0  0  0  0
   25.3983    4.0072   -9.2529 C   0  0  0  0  0  0  0  0  0  0  0  0
   23.8131    3.5903   -9.7280 S   0  0  0  0  0  0  0  0  0  0  0  0
   21.4840    2.2817   -7.4972 C   0  0  0  0  0  0  0  0  0  0  0  0
   20.1836    2.0063   -7.1283 C   0  0  0  0  0  0  0  0  0  0  0  0
   14.8310   -0.5728   -7.4107 C   0  0  0  0  0  0  0  0  0  0  0  0
   13.6785   -0.6934   -6.4249 C   0  0  1  0  0  0  0  0  0  0  0  0
   12.5367   -1.3092   -7.0148 O   0  0  0  0  0  0  0  0  0  0  0  0
   14.2291   -1.5832   -5.3235 C   0  0  0  0  0  0  0  0  0  0  0  0
   19.0252   -6.0509   -5.2131 H   0  0  0  0  0  0  0  0  0  0  0  0
   18.0100   -7.2600   -6.0226 H   0  0  0  0  0  0  0  0  0  0  0  0
   18.1959   -7.3100   -4.2514 H   0  0  0  0  0  0  0  0  0  0  0  0
   18.1049   -4.3967   -4.0269 H   0  0  0  0  0  0  0  0  0  0  0  0
   15.2032   -3.9094   -4.4552 H   0  0  0  0  0  0  0  0  0  0  0  0
   16.9893   -2.8042   -0.6736 H   0  0  0  0  0  0  0  0  0  0  0  0
   17.5093   -1.9251   -2.1097 H   0  0  0  0  0  0  0  0  0  0  0  0
   17.9844   -3.6043   -1.8743 H   0  0  0  0  0  0  0  0  0  0  0  0
   15.1792   -4.5954   -0.8368 H   0  0  0  0  0  0  0  0  0  0  0  0
   16.2047   -5.4689   -1.9776 H   0  0  0  0  0  0  0  0  0  0  0  0
   14.5443   -5.0797   -2.4076 H   0  0  0  0  0  0  0  0  0  0  0  0
   15.0756   -1.3369   -2.5068 H   0  0  0  0  0  0  0  0  0  0  0  0
   14.5883   -2.2788   -1.1118 H   0  0  0  0  0  0  0  0  0  0  0  0
   13.8520   -2.6211   -2.6693 H   0  0  0  0  0  0  0  0  0  0  0  0
   16.9155   -1.0659   -7.0776 H   0  0  0  0  0  0  0  0  0  0  0  0
   17.7717    0.8857   -7.6150 H   0  0  0  0  0  0  0  0  0  0  0  0
   17.1293    3.4031   -7.0710 H   0  0  0  0  0  0  0  0  0  0  0  0
   17.7539    2.9414   -5.4782 H   0  0  0  0  0  0  0  0  0  0  0  0
   18.9516    5.1468   -7.1810 H   0  0  0  0  0  0  0  0  0  0  0  0
   21.2553    5.6312   -7.8321 H   0  0  0  0  0  0  0  0  0  0  0  0
   25.2814    4.9831   -5.5547 H   0  0  0  0  0  0  0  0  0  0  0  0
   24.1002    3.6975   -5.2949 H   0  0  0  0  0  0  0  0  0  0  0  0
   23.5549    5.3424   -5.6762 H   0  0  0  0  0  0  0  0  0  0  0  0
   26.2172    3.9987   -9.9579 H   0  0  0  0  0  0  0  0  0  0  0  0
   22.1824    1.4587   -7.5834 H   0  0  0  0  0  0  0  0  0  0  0  0
   19.9145    0.9758   -6.9293 H   0  0  0  0  0  0  0  0  0  0  0  0
   14.7655    0.3420   -8.0092 H   0  0  0  0  0  0  0  0  0  0  0  0
   14.8199   -1.4185   -8.1069 H   0  0  0  0  0  0  0  0  0  0  0  0
   13.3859    0.2850   -6.0266 H   0  0  0  0  0  0  0  0  0  0  0  0
   12.1887   -0.7134   -7.7026 H   0  0  0  0  0  0  0  0  0  0  0  0
   13.8479   -2.6048   -5.3609 H   0  0  0  0  0  0  0  0  0  0  0  0
   13.9561   -1.1591   -4.3573 H   0  0  0  0  0  0  0  0  0  0  0  0
  1 34  1  0  0  0  0
  1 35  1  0  0  0  0
  1 36  1  0  0  0  0
  1  2  1  0  0  0  0
  2  3  2  0  0  0  0
  2  4  1  0  0  0  0
  4 37  1  0  0  0  0
  5  4  1  0  0  0  0
  5 38  1  0  0  0  0
  5  6  1  0  0  0  0
  5 10  1  0  0  0  0
  6  7  1  0  0  0  0
  6  8  1  0  0  0  0
  6  9  1  0  0  0  0
  7 39  1  0  0  0  0
  7 40  1  0  0  0  0
  7 41  1  0  0  0  0
  8 42  1  0  0  0  0
  8 43  1  0  0  0  0
  8 44  1  0  0  0  0
  9 45  1  0  0  0  0
  9 46  1  0  0  0  0
  9 47  1  0  0  0  0
 10 11  2  0  0  0  0
 10 12  1  0  0  0  0
 12 33  1  0  0  0  0
 13 12  1  0  0  0  0
 13 30  1  0  0  0  0
 13 48  1  0  0  0  0
 13 14  1  0  0  0  0
 14 15  2  0  0  0  0
 14 16  1  0  0  0  0
 16 49  1  0  0  0  0
 16 17  1  0  0  0  0
 17 50  1  0  0  0  0
 17 51  1  0  0  0  0
 17 18  1  0  0  0  0
 18 19  1  0  0  0  0
 18 29  2  0  0  0  0
 19 52  1  0  0  0  0
 19 20  2  0  0  0  0
 20 53  1  0  0  0  0
 20 21  1  0  0  0  0
 21 28  2  0  0  0  0
 21 22  1  0  0  0  0
 22 23  2  0  0  0  0
 22 27  1  0  0  0  0
 23 24  1  0  0  0  0
 23 25  1  0  0  0  0
 24 54  1  0  0  0  0
 24 55  1  0  0  0  0
 24 56  1  0  0  0  0
 25 26  2  0  0  0  0
 26 57  1  0  0  0  0
 26 27  1  0  0  0  0
 28 58  1  0  0  0  0
 28 29  1  0  0  0  0
 29 59  1  0  0  0  0
 31 30  1  0  0  0  0
 30 60  1  0  0  0  0
 30 61  1  0  0  0  0
 31 33  1  0  0  0  0
 31 62  1  0  0  0  0
 31 32  1  0  0  0  0
 32 63  1  0  0  0  0
 33 64  1  0  0  0  0
 33 65  1  0  0  0  0
M  ZZC   1 c1
M  ZZC   2 c2
M  ZZC   3 o1
M  ZZC   4 n1
M  ZZC   5 c3
M  ZZC   6 c4
M  ZZC   7 c5
M  ZZC   8 c6
M  ZZC   9 c7
M  ZZC  10 c8
M  ZZC  11 o2
M  ZZC  12 n2
M  ZZC  13 c9
M  ZZC  14 c10
M  ZZC  15 o3
M  ZZC  16 n3
M  ZZC  17 c11
M  ZZC  18 c12
M  ZZC  19 c13
M  ZZC  20 c14
M  ZZC  21 c15
M  ZZC  22 c16
M  ZZC  23 c17
M  ZZC  24 c18
M  ZZC  25 n4
M  ZZC  26 c19
M  ZZC  27 s1
M  ZZC  28 c20
M  ZZC  29 c21
M  ZZC  30 c22
M  ZZC  31 c23
M  ZZC  32 o4
M  ZZC  33 c24
M  ZZC  34 h11
M  ZZC  35 h12
M  ZZC  36 h13
M  ZZC  37 h01
M  ZZC  38 h31
M  ZZC  39 h51
M  ZZC  40 h52
M  ZZC  41 h53
M  ZZC  42 h61
M  ZZC  43 h62
M  ZZC  44 h63
M  ZZC  45 h71
M  ZZC  46 h72
M  ZZC  47 h73
M  ZZC  48 h91
M  ZZC  49 h02
M  ZZC  50 h111
M  ZZC  51 h112
M  ZZC  52 h131
M  ZZC  53 h141
M  ZZC  54 h181
M  ZZC  55 h182
M  ZZC  56 h183
M  ZZC  57 h191
M  ZZC  58 h201
M  ZZC  59 h211
M  ZZC  60 h221
M  ZZC  61 h222
M  ZZC  62 h231
M  ZZC  63 h41
M  ZZC  64 h241
M  ZZC  65 h242
M  ZZM   1 1
M  ZZI   1 111
M  ZZM   2 3
M  ZZI   2 121
M  ZZM   3 7
M  ZZI   3 81
M  ZZM   4 10
M  ZZI   4 211
M  ZZM   5 1
M  ZZI   5 113
M  ZZM   6 1
M  ZZI   6 110
M  ZZM   7 1
M  ZZI   7 111
M  ZZM   8 1
M  ZZI   8 111
M  ZZM   9 1
M  ZZI   9 111
M  ZZM  10 3
M  ZZI  10 121
M  ZZM  11 7
M  ZZI  11 81
M  ZZM  12 10
M  ZZI  12 192
M  ZZM  13 1
M  ZZI  13 113
M  ZZM  14 3
M  ZZI  14 121
M  ZZM  15 7
M  ZZI  15 81
M  ZZM  16 10
M  ZZI  16 211
M  ZZM  17 1
M  ZZI  17 112
M  ZZM  18 37
M  ZZI  18 124
M  ZZM  19 37
M  ZZI  19 125
M  ZZM  20 37
M  ZZI  20 125
M  ZZM  21 37
M  ZZI  21 124
M  ZZM  22 63
M  ZZI  22 104
M  ZZM  23 64
M  ZZI  23 105
M  ZZM  24 1
M  ZZI  24 111
M  ZZM  25 66
M  ZZI  25 222
M  ZZM  26 63
M  ZZI  26 104
M  ZZM  27 44
M  ZZI  27 248
M  ZZM  28 37
M  ZZI  28 125
M  ZZM  29 37
M  ZZI  29 125
M  ZZM  30 1
M  ZZI  30 112
M  ZZM  31 1
M  ZZI  31 113
M  ZZM  32 6
M  ZZI  32 60
M  ZZM  33 1
M  ZZI  33 112
M  ZZM  34 5
M  ZZI  34 1
M  ZZM  35 5
M  ZZI  35 1
M  ZZM  36 5
M  ZZI  36 1
M  ZZM  37 28
M  ZZI  37 11
M  ZZM  38 5
M  ZZI  38 1
M  ZZM  39 5
M  ZZI  39 1
M  ZZM  40 5
M  ZZI  40 1
M  ZZM  41 5
M  ZZI  41 1
M  ZZM  42 5
M  ZZI  42 1
M  ZZM  43 5
M  ZZI  43 1
M  ZZM  44 5
M  ZZI  44 1
M  ZZM  45 5
M  ZZI  45 1
M  ZZM  46 5
M  ZZI  46 1
M  ZZM  47 5
M  ZZI  47 1
M  ZZM  48 5
M  ZZI  48 1
M  ZZM  49 28
M  ZZI  49 11
M  ZZM  50 5
M  ZZI  50 1
M  ZZM  51 5
M  ZZI  51 1
M  ZZM  52 5
M  ZZI  52 1
M  ZZM  53 5
M  ZZI  53 1
M  ZZM  54 5
M  ZZI  54 1
M  ZZM  55 5
M  ZZI  55 1
M  ZZM  56 5
M  ZZI  56 1
M  ZZM  57 5
M  ZZI  57 1
M  ZZM  58 5
M  ZZI  58 1
M  ZZM  59 5
M  ZZI  59 1
M  ZZM  60 5
M  ZZI  60 1
M  ZZM  61 5
M  ZZI  61 1
M  ZZM  62 5
M  ZZI  62 1
M  ZZM  63 21
M  ZZI  63 20
M  ZZM  64 5
M  ZZI  64 1
M  ZZM  65 5
M  ZZI  65 1
M  END
> <IX>
1

> <NAME>
VHL_6YOJ_2.pdb

> <Score>
-11.75879

> <Natom>
65

> <Nflex>
8

> <Hbond>
-4.95806

> <Hphob>
-6.596913

> <VwInt>
-28.084372

> <Dsolv>
16.924738

> <SolEl>
17.301843

> <Eintl>
7.294392

> <RecConf>
ND

> <projPath>
VHL_maps/

> <NAME_>
VHL_6YOJ_2.pdb

$$$$
