VHL_1ERR_7.pdb
  MOLSOFT 04032206363D

 68 70  0  0  1  0  0  0  0  0999 V2000
   16.1636   -6.5071   -5.7058 O   0  0  0  0  0  0  0  0  0  0  0  0
   17.2555   -6.1273   -5.3135 C   0  0  0  0  0  0  0  0  0  0  0  0
   17.5210   -4.8732   -4.7958 N   0  0  0  0  0  0  0  0  0  0  0  0
   16.5283   -3.7987   -4.7043 C   0  0  1  0  0  0  0  0  0  0  0  0
   15.8718   -3.6785   -3.2884 C   0  0  0  0  0  0  0  0  0  0  0  0
   14.6022   -2.8151   -3.3575 C   0  0  0  0  0  0  0  0  0  0  0  0
   16.8239   -3.0521   -2.2570 C   0  0  0  0  0  0  0  0  0  0  0  0
   15.4496   -5.0552   -2.7551 C   0  0  0  0  0  0  0  0  0  0  0  0
   17.2134   -2.4952   -5.1540 C   0  0  0  0  0  0  0  0  0  0  0  0
   18.3550   -2.2281   -4.8077 O   0  0  0  0  0  0  0  0  0  0  0  0
   16.4679   -1.5775   -5.8943 N   0  0  0  0  0  0  0  0  0  0  0  0
   16.9840   -0.2391   -6.1489 C   0  0  2  0  0  0  0  0  0  0  0  0
   17.0119    0.6300   -4.8951 C   0  0  0  0  0  0  0  0  0  0  0  0
   16.2242    0.4963   -3.9682 O   0  0  0  0  0  0  0  0  0  0  0  0
   17.9423    1.6489   -4.9781 N   0  0  0  0  0  0  0  0  0  0  0  0
   17.8887    2.8012   -4.0979 C   0  0  1  0  0  0  0  0  0  0  0  0
   19.2955    3.3084   -3.7853 C   0  0  0  0  0  0  0  0  0  0  0  0
   16.9839    3.8349   -4.7391 C   0  0  0  0  0  0  0  0  0  0  0  0
   17.4141    4.6442   -5.7887 C   0  0  0  0  0  0  0  0  0  0  0  0
   16.5330    5.4796   -6.4502 C   0  0  0  0  0  0  0  0  0  0  0  0
   15.1884    5.5298   -6.0939 C   0  0  0  0  0  0  0  0  0  0  0  0
   14.2460    6.3532   -6.8417 C   0  0  0  0  0  0  0  0  0  0  0  0
   13.2548    7.2340   -6.4207 C   0  0  0  0  0  0  0  0  0  0  0  0
   12.8893    7.5887   -5.0290 C   0  0  0  0  0  0  0  0  0  0  0  0
   12.5432    7.8376   -7.4375 N   0  0  0  0  0  0  0  0  0  0  0  0
   12.9688    7.3906   -8.5961 C   0  0  0  0  0  0  0  0  0  0  0  0
   14.2423    6.2657   -8.5607 S   0  0  0  0  0  0  0  0  0  0  0  0
   14.7605    4.7434   -5.0304 C   0  0  0  0  0  0  0  0  0  0  0  0
   15.6436    3.9106   -4.3660 C   0  0  0  0  0  0  0  0  0  0  0  0
   16.0203    0.3866   -7.1538 C   0  0  0  0  0  0  0  0  0  0  0  0
   15.3777   -0.8043   -7.8341 C   0  0  1  0  0  0  0  0  0  0  0  0
   16.1793   -1.2335   -8.9438 O   0  0  0  0  0  0  0  0  0  0  0  0
   15.3343   -1.8702   -6.7471 C   0  0  0  0  0  0  0  0  0  0  0  0
   18.4541   -7.0338   -5.3492 C   0  0  0  0  0  0  0  0  0  0  0  0
   18.4618   -4.6720   -4.4802 H   0  0  0  0  0  0  0  0  0  0  0  0
   15.7668   -4.0492   -5.4300 H   0  0  0  0  0  0  0  0  0  0  0  0
   13.8830   -3.1971   -4.0850 H   0  0  0  0  0  0  0  0  0  0  0  0
   14.8329   -1.7867   -3.6536 H   0  0  0  0  0  0  0  0  0  0  0  0
   14.0991   -2.7660   -2.3870 H   0  0  0  0  0  0  0  0  0  0  0  0
   17.7716   -3.5913   -2.2061 H   0  0  0  0  0  0  0  0  0  0  0  0
   16.3890   -3.0666   -1.2523 H   0  0  0  0  0  0  0  0  0  0  0  0
   17.0509   -2.0068   -2.4865 H   0  0  0  0  0  0  0  0  0  0  0  0
   16.3036   -5.7219   -2.6102 H   0  0  0  0  0  0  0  0  0  0  0  0
   14.7541   -5.5437   -3.4380 H   0  0  0  0  0  0  0  0  0  0  0  0
   14.9438   -4.9749   -1.7878 H   0  0  0  0  0  0  0  0  0  0  0  0
   17.9937   -0.3253   -6.5558 H   0  0  0  0  0  0  0  0  0  0  0  0
   18.5616    1.6943   -5.7801 H   0  0  0  0  0  0  0  0  0  0  0  0
   17.4415    2.4871   -3.1480 H   0  0  0  0  0  0  0  0  0  0  0  0
   19.8786    2.5558   -3.2456 H   0  0  0  0  0  0  0  0  0  0  0  0
   19.2844    4.2228   -3.1839 H   0  0  0  0  0  0  0  0  0  0  0  0
   19.8280    3.5476   -4.7111 H   0  0  0  0  0  0  0  0  0  0  0  0
   18.4432    4.6091   -6.1316 H   0  0  0  0  0  0  0  0  0  0  0  0
   16.9125    6.0860   -7.2677 H   0  0  0  0  0  0  0  0  0  0  0  0
   12.1426    6.8940   -4.6364 H   0  0  0  0  0  0  0  0  0  0  0  0
   12.4639    8.5941   -4.9652 H   0  0  0  0  0  0  0  0  0  0  0  0
   13.7670    7.5399   -4.3776 H   0  0  0  0  0  0  0  0  0  0  0  0
   12.5432    7.7071   -9.5324 H   0  0  0  0  0  0  0  0  0  0  0  0
   13.7160    4.7402   -4.7322 H   0  0  0  0  0  0  0  0  0  0  0  0
   15.2623    3.2793   -3.5680 H   0  0  0  0  0  0  0  0  0  0  0  0
   15.2519    0.9790   -6.6434 H   0  0  0  0  0  0  0  0  0  0  0  0
   16.5426    1.0472   -7.8540 H   0  0  0  0  0  0  0  0  0  0  0  0
   14.3813   -0.5687   -8.2104 H   0  0  0  0  0  0  0  0  0  0  0  0
   17.1142   -1.1396   -8.6828 H   0  0  0  0  0  0  0  0  0  0  0  0
   15.4136   -2.8792   -7.1585 H   0  0  0  0  0  0  0  0  0  0  0  0
   14.4295   -1.7793   -6.1384 H   0  0  0  0  0  0  0  0  0  0  0  0
   18.5062   -7.5182   -6.3276 H   0  0  0  0  0  0  0  0  0  0  0  0
   18.3453   -7.7944   -4.5727 H   0  0  0  0  0  0  0  0  0  0  0  0
   19.3848   -6.4820   -5.1904 H   0  0  0  0  0  0  0  0  0  0  0  0
  1  2  2  0  0  0  0
  2  3  1  0  0  0  0
  2 34  1  0  0  0  0
  4  3  1  0  0  0  0
  3 35  1  0  0  0  0
  4  5  1  0  0  0  0
  4 36  1  0  0  0  0
  4  9  1  0  0  0  0
  5  6  1  0  0  0  0
  5  7  1  0  0  0  0
  5  8  1  0  0  0  0
  6 37  1  0  0  0  0
  6 38  1  0  0  0  0
  6 39  1  0  0  0  0
  7 40  1  0  0  0  0
  7 41  1  0  0  0  0
  7 42  1  0  0  0  0
  8 43  1  0  0  0  0
  8 44  1  0  0  0  0
  8 45  1  0  0  0  0
  9 10  2  0  0  0  0
  9 11  1  0  0  0  0
 11 33  1  0  0  0  0
 12 11  1  0  0  0  0
 12 30  1  0  0  0  0
 12 46  1  0  0  0  0
 12 13  1  0  0  0  0
 13 14  2  0  0  0  0
 13 15  1  0  0  0  0
 15 47  1  0  0  0  0
 16 15  1  0  0  0  0
 16 48  1  0  0  0  0
 16 17  1  0  0  0  0
 16 18  1  0  0  0  0
 17 49  1  0  0  0  0
 17 50  1  0  0  0  0
 17 51  1  0  0  0  0
 18 19  1  0  0  0  0
 18 29  2  0  0  0  0
 19 52  1  0  0  0  0
 19 20  2  0  0  0  0
 20 53  1  0  0  0  0
 20 21  1  0  0  0  0
 21 28  2  0  0  0  0
 21 22  1  0  0  0  0
 22 23  2  0  0  0  0
 22 27  1  0  0  0  0
 23 24  1  0  0  0  0
 23 25  1  0  0  0  0
 24 54  1  0  0  0  0
 24 55  1  0  0  0  0
 24 56  1  0  0  0  0
 25 26  2  0  0  0  0
 26 57  1  0  0  0  0
 26 27  1  0  0  0  0
 28 58  1  0  0  0  0
 28 29  1  0  0  0  0
 29 59  1  0  0  0  0
 31 30  1  0  0  0  0
 30 60  1  0  0  0  0
 30 61  1  0  0  0  0
 31 33  1  0  0  0  0
 31 62  1  0  0  0  0
 31 32  1  0  0  0  0
 32 63  1  0  0  0  0
 33 64  1  0  0  0  0
 33 65  1  0  0  0  0
 34 66  1  0  0  0  0
 34 67  1  0  0  0  0
 34 68  1  0  0  0  0
M  ZZC   1 o1
M  ZZC   2 c1
M  ZZC   3 n1
M  ZZC   4 c2
M  ZZC   5 c3
M  ZZC   6 c4
M  ZZC   7 c5
M  ZZC   8 c6
M  ZZC   9 c7
M  ZZC  10 o2
M  ZZC  11 n2
M  ZZC  12 c8
M  ZZC  13 c9
M  ZZC  14 o3
M  ZZC  15 n3
M  ZZC  16 c10
M  ZZC  17 c11
M  ZZC  18 c12
M  ZZC  19 c13
M  ZZC  20 c14
M  ZZC  21 c15
M  ZZC  22 c16
M  ZZC  23 c17
M  ZZC  24 c18
M  ZZC  25 n4
M  ZZC  26 c19
M  ZZC  27 s1
M  ZZC  28 c20
M  ZZC  29 c21
M  ZZC  30 c22
M  ZZC  31 c23
M  ZZC  32 o4
M  ZZC  33 c24
M  ZZC  34 c25
M  ZZC  35 h11
M  ZZC  36 h21
M  ZZC  37 h41
M  ZZC  38 h42
M  ZZC  39 h43
M  ZZC  40 h51
M  ZZC  41 h52
M  ZZC  42 h53
M  ZZC  43 h61
M  ZZC  44 h62
M  ZZC  45 h63
M  ZZC  46 h81
M  ZZC  47 h31
M  ZZC  48 h101
M  ZZC  49 h111
M  ZZC  50 h112
M  ZZC  51 h113
M  ZZC  52 h131
M  ZZC  53 h141
M  ZZC  54 h181
M  ZZC  55 h182
M  ZZC  56 h183
M  ZZC  57 h191
M  ZZC  58 h201
M  ZZC  59 h211
M  ZZC  60 h221
M  ZZC  61 h222
M  ZZC  62 h231
M  ZZC  63 h01
M  ZZC  64 h241
M  ZZC  65 h242
M  ZZC  66 h251
M  ZZC  67 h252
M  ZZC  68 h253
M  ZZM   1 7
M  ZZI   1 81
M  ZZM   2 3
M  ZZI   2 121
M  ZZM   3 10
M  ZZI   3 211
M  ZZM   4 1
M  ZZI   4 113
M  ZZM   5 1
M  ZZI   5 110
M  ZZM   6 1
M  ZZI   6 111
M  ZZM   7 1
M  ZZI   7 111
M  ZZM   8 1
M  ZZI   8 111
M  ZZM   9 3
M  ZZI   9 121
M  ZZM  10 7
M  ZZI  10 81
M  ZZM  11 10
M  ZZI  11 192
M  ZZM  12 1
M  ZZI  12 113
M  ZZM  13 3
M  ZZI  13 121
M  ZZM  14 7
M  ZZI  14 81
M  ZZM  15 10
M  ZZI  15 211
M  ZZM  16 1
M  ZZI  16 113
M  ZZM  17 1
M  ZZI  17 111
M  ZZM  18 37
M  ZZI  18 124
M  ZZM  19 37
M  ZZI  19 125
M  ZZM  20 37
M  ZZI  20 125
M  ZZM  21 37
M  ZZI  21 124
M  ZZM  22 63
M  ZZI  22 104
M  ZZM  23 64
M  ZZI  23 105
M  ZZM  24 1
M  ZZI  24 111
M  ZZM  25 66
M  ZZI  25 222
M  ZZM  26 63
M  ZZI  26 104
M  ZZM  27 44
M  ZZI  27 248
M  ZZM  28 37
M  ZZI  28 125
M  ZZM  29 37
M  ZZI  29 125
M  ZZM  30 1
M  ZZI  30 112
M  ZZM  31 1
M  ZZI  31 113
M  ZZM  32 6
M  ZZI  32 60
M  ZZM  33 1
M  ZZI  33 112
M  ZZM  34 1
M  ZZI  34 111
M  ZZM  35 28
M  ZZI  35 11
M  ZZM  36 5
M  ZZI  36 1
M  ZZM  37 5
M  ZZI  37 1
M  ZZM  38 5
M  ZZI  38 1
M  ZZM  39 5
M  ZZI  39 1
M  ZZM  40 5
M  ZZI  40 1
M  ZZM  41 5
M  ZZI  41 1
M  ZZM  42 5
M  ZZI  42 1
M  ZZM  43 5
M  ZZI  43 1
M  ZZM  44 5
M  ZZI  44 1
M  ZZM  45 5
M  ZZI  45 1
M  ZZM  46 5
M  ZZI  46 1
M  ZZM  47 28
M  ZZI  47 11
M  ZZM  48 5
M  ZZI  48 1
M  ZZM  49 5
M  ZZI  49 1
M  ZZM  50 5
M  ZZI  50 1
M  ZZM  51 5
M  ZZI  51 1
M  ZZM  52 5
M  ZZI  52 1
M  ZZM  53 5
M  ZZI  53 1
M  ZZM  54 5
M  ZZI  54 1
M  ZZM  55 5
M  ZZI  55 1
M  ZZM  56 5
M  ZZI  56 1
M  ZZM  57 5
M  ZZI  57 1
M  ZZM  58 5
M  ZZI  58 1
M  ZZM  59 5
M  ZZI  59 1
M  ZZM  60 5
M  ZZI  60 1
M  ZZM  61 5
M  ZZI  61 1
M  ZZM  62 5
M  ZZI  62 1
M  ZZM  63 21
M  ZZI  63 20
M  ZZM  64 5
M  ZZI  64 1
M  ZZM  65 5
M  ZZI  65 1
M  ZZM  66 5
M  ZZI  66 1
M  ZZM  67 5
M  ZZI  67 1
M  ZZM  68 5
M  ZZI  68 1
M  END
> <IX>
1

> <NAME>
VHL_1ERR_7.pdb

> <Score>
-22.663561

> <Natom>
68

> <Nflex>
8

> <Hbond>
-8.054771

> <Hphob>
-6.492402

> <VwInt>
-29.595137

> <Dsolv>
21.164614

> <SolEl>
10.114091

> <Eintl>
7.185491

> <RecConf>
ND

> <projPath>
VHL_maps/

> <NAME_>
VHL_1ERR_7.pdb

$$$$
