VHL_4CI3_17.pdb
  MOLSOFT 04032206383D

 65 67  0  0  1  0  0  0  0  0999 V2000
   17.2851   -6.2379   -4.3719 C   0  0  0  0  0  0  0  0  0  0  0  0
   16.4510   -5.1286   -3.7850 C   0  0  0  0  0  0  0  0  0  0  0  0
   15.3450   -5.3293   -3.3077 O   0  0  0  0  0  0  0  0  0  0  0  0
   17.0399   -3.8851   -3.8672 N   0  0  0  0  0  0  0  0  0  0  0  0
   16.3036   -2.6568   -3.5552 C   0  0  1  0  0  0  0  0  0  0  0  0
   16.5749   -2.0877   -2.1294 C   0  0  0  0  0  0  0  0  0  0  0  0
   18.0089   -1.5620   -1.9660 C   0  0  0  0  0  0  0  0  0  0  0  0
   15.6022   -0.9336   -1.8410 C   0  0  0  0  0  0  0  0  0  0  0  0
   16.3342   -3.1715   -1.0647 C   0  0  0  0  0  0  0  0  0  0  0  0
   16.6670   -1.6913   -4.7010 C   0  0  0  0  0  0  0  0  0  0  0  0
   17.8375   -1.4544   -4.9764 O   0  0  0  0  0  0  0  0  0  0  0  0
   15.6126   -1.1516   -5.4364 N   0  0  0  0  0  0  0  0  0  0  0  0
   15.8571   -0.3767   -6.6434 C   0  0  2  0  0  0  0  0  0  0  0  0
   16.1969    1.0780   -6.3088 C   0  0  0  0  0  0  0  0  0  0  0  0
   15.5297    1.7564   -5.5391 O   0  0  0  0  0  0  0  0  0  0  0  0
   17.3119    1.5520   -6.9729 N   0  0  0  0  0  0  0  0  0  0  0  0
   17.7941    2.9071   -6.7640 C   0  0  0  0  0  0  0  0  0  0  0  0
   19.2306    3.1276   -7.1756 C   0  0  0  0  0  0  0  0  0  0  0  0
   19.6744    4.4033   -7.5178 C   0  0  0  0  0  0  0  0  0  0  0  0
   21.0007    4.6374   -7.8520 C   0  0  0  0  0  0  0  0  0  0  0  0
   21.9217    3.5978   -7.8484 C   0  0  0  0  0  0  0  0  0  0  0  0
   23.3209    3.8168   -8.1789 C   0  0  0  0  0  0  0  0  0  0  0  0
   24.3850    4.2038   -7.3768 C   0  0  0  0  0  0  0  0  0  0  0  0
   24.3345    4.5409   -5.9364 C   0  0  0  0  0  0  0  0  0  0  0  0
   25.6098    4.2477   -8.0127 N   0  0  0  0  0  0  0  0  0  0  0  0
   25.4620    3.9294   -9.2789 C   0  0  0  0  0  0  0  0  0  0  0  0
   23.8745    3.5609   -9.7850 S   0  0  0  0  0  0  0  0  0  0  0  0
   21.4826    2.3298   -7.5009 C   0  0  0  0  0  0  0  0  0  0  0  0
   20.1643    2.0978   -7.1638 C   0  0  0  0  0  0  0  0  0  0  0  0
   14.5490   -0.4694   -7.4094 C   0  0  0  0  0  0  0  0  0  0  0  0
   13.4873   -0.5953   -6.3267 C   0  0  1  0  0  0  0  0  0  0  0  0
   12.3519   -1.3198   -6.7995 O   0  0  0  0  0  0  0  0  0  0  0  0
   14.1929   -1.3797   -5.2324 C   0  0  0  0  0  0  0  0  0  0  0  0
   18.2643   -5.8806   -4.7037 H   0  0  0  0  0  0  0  0  0  0  0  0
   16.7590   -6.6631   -5.2321 H   0  0  0  0  0  0  0  0  0  0  0  0
   17.4371   -7.0152   -3.6200 H   0  0  0  0  0  0  0  0  0  0  0  0
   17.9881   -3.8071   -4.2248 H   0  0  0  0  0  0  0  0  0  0  0  0
   15.2435   -2.9146   -3.6147 H   0  0  0  0  0  0  0  0  0  0  0  0
   18.2203   -1.2927   -0.9264 H   0  0  0  0  0  0  0  0  0  0  0  0
   18.1890   -0.6642   -2.5644 H   0  0  0  0  0  0  0  0  0  0  0  0
   18.7443   -2.3116   -2.2613 H   0  0  0  0  0  0  0  0  0  0  0  0
   15.7322   -0.1137   -2.5549 H   0  0  0  0  0  0  0  0  0  0  0  0
   15.7598   -0.5174   -0.8403 H   0  0  0  0  0  0  0  0  0  0  0  0
   14.5580   -1.2543   -1.9082 H   0  0  0  0  0  0  0  0  0  0  0  0
   16.4361   -2.7672   -0.0524 H   0  0  0  0  0  0  0  0  0  0  0  0
   17.0499   -3.9944   -1.1492 H   0  0  0  0  0  0  0  0  0  0  0  0
   15.3264   -3.5926   -1.1414 H   0  0  0  0  0  0  0  0  0  0  0  0
   16.6783   -0.8278   -7.2125 H   0  0  0  0  0  0  0  0  0  0  0  0
   17.8169    0.9339   -7.6023 H   0  0  0  0  0  0  0  0  0  0  0  0
   17.1334    3.5616   -7.3430 H   0  0  0  0  0  0  0  0  0  0  0  0
   17.6768    3.1651   -5.7059 H   0  0  0  0  0  0  0  0  0  0  0  0
   18.9789    5.2378   -7.5246 H   0  0  0  0  0  0  0  0  0  0  0  0
   21.3121    5.6436   -8.1167 H   0  0  0  0  0  0  0  0  0  0  0  0
   25.3056    4.8981   -5.5815 H   0  0  0  0  0  0  0  0  0  0  0  0
   24.0675    3.6632   -5.3439 H   0  0  0  0  0  0  0  0  0  0  0  0
   23.5978    5.3262   -5.7438 H   0  0  0  0  0  0  0  0  0  0  0  0
   26.2932    3.9012   -9.9688 H   0  0  0  0  0  0  0  0  0  0  0  0
   22.1712    1.4941   -7.5015 H   0  0  0  0  0  0  0  0  0  0  0  0
   19.8743    1.0890   -6.8919 H   0  0  0  0  0  0  0  0  0  0  0  0
   14.3647    0.3833   -8.0714 H   0  0  0  0  0  0  0  0  0  0  0  0
   14.5567   -1.3718   -8.0295 H   0  0  0  0  0  0  0  0  0  0  0  0
   13.1622    0.3852   -5.9612 H   0  0  0  0  0  0  0  0  0  0  0  0
   11.9126   -0.7853   -7.4863 H   0  0  0  0  0  0  0  0  0  0  0  0
   13.9835   -2.4519   -5.2981 H   0  0  0  0  0  0  0  0  0  0  0  0
   13.8967   -1.0392   -4.2362 H   0  0  0  0  0  0  0  0  0  0  0  0
  1 34  1  0  0  0  0
  1 35  1  0  0  0  0
  1 36  1  0  0  0  0
  1  2  1  0  0  0  0
  2  3  2  0  0  0  0
  2  4  1  0  0  0  0
  4 37  1  0  0  0  0
  5  4  1  0  0  0  0
  5 38  1  0  0  0  0
  5  6  1  0  0  0  0
  5 10  1  0  0  0  0
  6  7  1  0  0  0  0
  6  8  1  0  0  0  0
  6  9  1  0  0  0  0
  7 39  1  0  0  0  0
  7 40  1  0  0  0  0
  7 41  1  0  0  0  0
  8 42  1  0  0  0  0
  8 43  1  0  0  0  0
  8 44  1  0  0  0  0
  9 45  1  0  0  0  0
  9 46  1  0  0  0  0
  9 47  1  0  0  0  0
 10 11  2  0  0  0  0
 10 12  1  0  0  0  0
 12 33  1  0  0  0  0
 13 12  1  0  0  0  0
 13 30  1  0  0  0  0
 13 48  1  0  0  0  0
 13 14  1  0  0  0  0
 14 15  2  0  0  0  0
 14 16  1  0  0  0  0
 16 49  1  0  0  0  0
 16 17  1  0  0  0  0
 17 50  1  0  0  0  0
 17 51  1  0  0  0  0
 17 18  1  0  0  0  0
 18 19  1  0  0  0  0
 18 29  2  0  0  0  0
 19 52  1  0  0  0  0
 19 20  2  0  0  0  0
 20 53  1  0  0  0  0
 20 21  1  0  0  0  0
 21 28  2  0  0  0  0
 21 22  1  0  0  0  0
 22 23  2  0  0  0  0
 22 27  1  0  0  0  0
 23 24  1  0  0  0  0
 23 25  1  0  0  0  0
 24 54  1  0  0  0  0
 24 55  1  0  0  0  0
 24 56  1  0  0  0  0
 25 26  2  0  0  0  0
 26 57  1  0  0  0  0
 26 27  1  0  0  0  0
 28 58  1  0  0  0  0
 28 29  1  0  0  0  0
 29 59  1  0  0  0  0
 31 30  1  0  0  0  0
 30 60  1  0  0  0  0
 30 61  1  0  0  0  0
 31 33  1  0  0  0  0
 31 62  1  0  0  0  0
 31 32  1  0  0  0  0
 32 63  1  0  0  0  0
 33 64  1  0  0  0  0
 33 65  1  0  0  0  0
M  ZZC   1 c1
M  ZZC   2 c2
M  ZZC   3 o1
M  ZZC   4 n1
M  ZZC   5 c3
M  ZZC   6 c4
M  ZZC   7 c5
M  ZZC   8 c6
M  ZZC   9 c7
M  ZZC  10 c8
M  ZZC  11 o2
M  ZZC  12 n2
M  ZZC  13 c9
M  ZZC  14 c10
M  ZZC  15 o3
M  ZZC  16 n3
M  ZZC  17 c11
M  ZZC  18 c12
M  ZZC  19 c13
M  ZZC  20 c14
M  ZZC  21 c15
M  ZZC  22 c16
M  ZZC  23 c17
M  ZZC  24 c18
M  ZZC  25 n4
M  ZZC  26 c19
M  ZZC  27 s1
M  ZZC  28 c20
M  ZZC  29 c21
M  ZZC  30 c22
M  ZZC  31 c23
M  ZZC  32 o4
M  ZZC  33 c24
M  ZZC  34 h11
M  ZZC  35 h12
M  ZZC  36 h13
M  ZZC  37 h01
M  ZZC  38 h31
M  ZZC  39 h51
M  ZZC  40 h52
M  ZZC  41 h53
M  ZZC  42 h61
M  ZZC  43 h62
M  ZZC  44 h63
M  ZZC  45 h71
M  ZZC  46 h72
M  ZZC  47 h73
M  ZZC  48 h91
M  ZZC  49 h02
M  ZZC  50 h111
M  ZZC  51 h112
M  ZZC  52 h131
M  ZZC  53 h141
M  ZZC  54 h181
M  ZZC  55 h182
M  ZZC  56 h183
M  ZZC  57 h191
M  ZZC  58 h201
M  ZZC  59 h211
M  ZZC  60 h221
M  ZZC  61 h222
M  ZZC  62 h231
M  ZZC  63 h41
M  ZZC  64 h241
M  ZZC  65 h242
M  ZZM   1 1
M  ZZI   1 111
M  ZZM   2 3
M  ZZI   2 121
M  ZZM   3 7
M  ZZI   3 81
M  ZZM   4 10
M  ZZI   4 211
M  ZZM   5 1
M  ZZI   5 113
M  ZZM   6 1
M  ZZI   6 110
M  ZZM   7 1
M  ZZI   7 111
M  ZZM   8 1
M  ZZI   8 111
M  ZZM   9 1
M  ZZI   9 111
M  ZZM  10 3
M  ZZI  10 121
M  ZZM  11 7
M  ZZI  11 81
M  ZZM  12 10
M  ZZI  12 192
M  ZZM  13 1
M  ZZI  13 113
M  ZZM  14 3
M  ZZI  14 121
M  ZZM  15 7
M  ZZI  15 81
M  ZZM  16 10
M  ZZI  16 211
M  ZZM  17 1
M  ZZI  17 112
M  ZZM  18 37
M  ZZI  18 124
M  ZZM  19 37
M  ZZI  19 125
M  ZZM  20 37
M  ZZI  20 125
M  ZZM  21 37
M  ZZI  21 124
M  ZZM  22 63
M  ZZI  22 104
M  ZZM  23 64
M  ZZI  23 105
M  ZZM  24 1
M  ZZI  24 111
M  ZZM  25 66
M  ZZI  25 222
M  ZZM  26 63
M  ZZI  26 104
M  ZZM  27 44
M  ZZI  27 248
M  ZZM  28 37
M  ZZI  28 125
M  ZZM  29 37
M  ZZI  29 125
M  ZZM  30 1
M  ZZI  30 112
M  ZZM  31 1
M  ZZI  31 113
M  ZZM  32 6
M  ZZI  32 60
M  ZZM  33 1
M  ZZI  33 112
M  ZZM  34 5
M  ZZI  34 1
M  ZZM  35 5
M  ZZI  35 1
M  ZZM  36 5
M  ZZI  36 1
M  ZZM  37 28
M  ZZI  37 11
M  ZZM  38 5
M  ZZI  38 1
M  ZZM  39 5
M  ZZI  39 1
M  ZZM  40 5
M  ZZI  40 1
M  ZZM  41 5
M  ZZI  41 1
M  ZZM  42 5
M  ZZI  42 1
M  ZZM  43 5
M  ZZI  43 1
M  ZZM  44 5
M  ZZI  44 1
M  ZZM  45 5
M  ZZI  45 1
M  ZZM  46 5
M  ZZI  46 1
M  ZZM  47 5
M  ZZI  47 1
M  ZZM  48 5
M  ZZI  48 1
M  ZZM  49 28
M  ZZI  49 11
M  ZZM  50 5
M  ZZI  50 1
M  ZZM  51 5
M  ZZI  51 1
M  ZZM  52 5
M  ZZI  52 1
M  ZZM  53 5
M  ZZI  53 1
M  ZZM  54 5
M  ZZI  54 1
M  ZZM  55 5
M  ZZI  55 1
M  ZZM  56 5
M  ZZI  56 1
M  ZZM  57 5
M  ZZI  57 1
M  ZZM  58 5
M  ZZI  58 1
M  ZZM  59 5
M  ZZI  59 1
M  ZZM  60 5
M  ZZI  60 1
M  ZZM  61 5
M  ZZI  61 1
M  ZZM  62 5
M  ZZI  62 1
M  ZZM  63 21
M  ZZI  63 20
M  ZZM  64 5
M  ZZI  64 1
M  ZZM  65 5
M  ZZI  65 1
M  END
> <IX>
1

> <NAME>
VHL_4CI3_17.pdb

> <Score>
-16.458413

> <Natom>
65

> <Nflex>
8

> <Hbond>
-4.877938

> <Hphob>
-6.344186

> <VwInt>
-32.160523

> <Dsolv>
17.413656

> <SolEl>
17.888262

> <Eintl>
4.379005

> <RecConf>
ND

> <projPath>
VHL_maps/

> <NAME_>
VHL_4CI3_17.pdb

$$$$
