VHL_1S9I_2.pdb
  MOLSOFT 04032206373D

 68 70  0  0  1  0  0  0  0  0999 V2000
    0.5695    2.0706  -18.2035 C   0  0  0  0  0  0  0  0  0  0  0  0
    1.5377    0.9267  -18.1236 C   0  0  0  0  0  0  0  0  0  0  0  0
    1.1646   -0.2307  -18.0096 O   0  0  0  0  0  0  0  0  0  0  0  0
    2.8538    1.3280  -18.2228 N   0  0  0  0  0  0  0  0  0  0  0  0
    3.9786    0.3870  -18.2080 C   0  0  1  0  0  0  0  0  0  0  0  0
    4.3824   -0.0890  -19.6454 C   0  0  0  0  0  0  0  0  0  0  0  0
    4.6552    1.0868  -20.5908 C   0  0  0  0  0  0  0  0  0  0  0  0
    3.2556   -0.9287  -20.2698 C   0  0  0  0  0  0  0  0  0  0  0  0
    5.6442   -0.9659  -19.6221 C   0  0  0  0  0  0  0  0  0  0  0  0
    5.1078    1.1162  -17.4504 C   0  0  0  0  0  0  0  0  0  0  0  0
    5.3322    2.3025  -17.6577 O   0  0  0  0  0  0  0  0  0  0  0  0
    5.8679    0.3821  -16.5346 N   0  0  0  0  0  0  0  0  0  0  0  0
    5.6837   -0.9987  -16.0868 C   0  0  2  0  0  0  0  0  0  0  0  0
    4.5203   -1.1408  -15.1044 C   0  0  0  0  0  0  0  0  0  0  0  0
    4.2444   -0.2685  -14.2944 O   0  0  0  0  0  0  0  0  0  0  0  0
    3.8556   -2.3564  -15.1794 N   0  0  0  0  0  0  0  0  0  0  0  0
    2.6504   -2.6124  -14.4013 C   0  0  1  0  0  0  0  0  0  0  0  0
    1.4250   -2.6084  -15.3108 C   0  0  0  0  0  0  0  0  0  0  0  0
    2.7245   -3.8736  -13.5636 C   0  0  0  0  0  0  0  0  0  0  0  0
    2.6611   -3.7799  -12.1756 C   0  0  0  0  0  0  0  0  0  0  0  0
    2.6484   -4.9091  -11.3757 C   0  0  0  0  0  0  0  0  0  0  0  0
    2.6802   -6.1841  -11.9324 C   0  0  0  0  0  0  0  0  0  0  0  0
    2.6059   -7.3776  -11.0879 C   0  0  0  0  0  0  0  0  0  0  0  0
    3.3190   -8.5714  -11.1177 C   0  0  0  0  0  0  0  0  0  0  0  0
    4.3975   -8.9477  -12.0529 C   0  0  0  0  0  0  0  0  0  0  0  0
    2.9788   -9.4912  -10.1471 N   0  0  0  0  0  0  0  0  0  0  0  0
    1.9798   -9.0273   -9.4317 C   0  0  0  0  0  0  0  0  0  0  0  0
    1.4471   -7.4534   -9.8138 S   0  0  0  0  0  0  0  0  0  0  0  0
    2.7678   -6.2802  -13.3200 C   0  0  0  0  0  0  0  0  0  0  0  0
    2.7984   -5.1480  -14.1217 C   0  0  0  0  0  0  0  0  0  0  0  0
    6.9826   -1.3299  -15.3707 C   0  0  0  0  0  0  0  0  0  0  0  0
    7.4729    0.0015  -14.8389 C   0  0  1  0  0  0  0  0  0  0  0  0
    8.8871   -0.0174  -14.6376 O   0  0  0  0  0  0  0  0  0  0  0  0
    7.0610    0.9584  -15.9431 C   0  0  0  0  0  0  0  0  0  0  0  0
    0.8701    2.8500  -17.5027 H   0  0  0  0  0  0  0  0  0  0  0  0
   -0.4347    1.7285  -17.9379 H   0  0  0  0  0  0  0  0  0  0  0  0
    0.5578    2.4744  -19.2200 H   0  0  0  0  0  0  0  0  0  0  0  0
    3.0627    2.3250  -18.2612 H   0  0  0  0  0  0  0  0  0  0  0  0
    3.6558   -0.4778  -17.6229 H   0  0  0  0  0  0  0  0  0  0  0  0
    4.9072    0.7393  -21.5981 H   0  0  0  0  0  0  0  0  0  0  0  0
    5.5010    1.6834  -20.2421 H   0  0  0  0  0  0  0  0  0  0  0  0
    3.7815    1.7383  -20.6927 H   0  0  0  0  0  0  0  0  0  0  0  0
    3.5625   -1.3605  -21.2281 H   0  0  0  0  0  0  0  0  0  0  0  0
    2.3610   -0.3317  -20.4709 H   0  0  0  0  0  0  0  0  0  0  0  0
    2.9679   -1.7604  -19.6185 H   0  0  0  0  0  0  0  0  0  0  0  0
    5.9386   -1.2653  -20.6334 H   0  0  0  0  0  0  0  0  0  0  0  0
    5.4811   -1.8893  -19.0602 H   0  0  0  0  0  0  0  0  0  0  0  0
    6.5027   -0.4448  -19.1881 H   0  0  0  0  0  0  0  0  0  0  0  0
    5.5188   -1.6648  -16.9351 H   0  0  0  0  0  0  0  0  0  0  0  0
    4.1741   -3.0753  -15.8200 H   0  0  0  0  0  0  0  0  0  0  0  0
    2.5342   -1.7737  -13.7134 H   0  0  0  0  0  0  0  0  0  0  0  0
    1.3195   -1.6409  -15.8080 H   0  0  0  0  0  0  0  0  0  0  0  0
    0.5068   -2.7946  -14.7447 H   0  0  0  0  0  0  0  0  0  0  0  0
    1.4954   -3.3685  -16.0954 H   0  0  0  0  0  0  0  0  0  0  0  0
    2.6117   -2.8078  -11.6933 H   0  0  0  0  0  0  0  0  0  0  0  0
    2.6096   -4.7766  -10.2985 H   0  0  0  0  0  0  0  0  0  0  0  0
    4.0002   -9.5450  -12.8784 H   0  0  0  0  0  0  0  0  0  0  0  0
    5.1660   -9.5343  -11.5435 H   0  0  0  0  0  0  0  0  0  0  0  0
    4.8785   -8.0641  -12.4701 H   0  0  0  0  0  0  0  0  0  0  0  0
    1.5227   -9.5990   -8.6364 H   0  0  0  0  0  0  0  0  0  0  0  0
    2.7896   -7.2533  -13.8005 H   0  0  0  0  0  0  0  0  0  0  0  0
    2.8511   -5.2715  -15.1990 H   0  0  0  0  0  0  0  0  0  0  0  0
    6.8423   -2.0340  -14.5538 H   0  0  0  0  0  0  0  0  0  0  0  0
    7.7153   -1.7599  -16.0645 H   0  0  0  0  0  0  0  0  0  0  0  0
    6.9811    0.2570  -13.8934 H   0  0  0  0  0  0  0  0  0  0  0  0
    9.1031   -0.7686  -14.0529 H   0  0  0  0  0  0  0  0  0  0  0  0
    7.8245    1.0191  -16.7243 H   0  0  0  0  0  0  0  0  0  0  0  0
    6.8747    1.9741  -15.5862 H   0  0  0  0  0  0  0  0  0  0  0  0
  1 35  1  0  0  0  0
  1 36  1  0  0  0  0
  1 37  1  0  0  0  0
  1  2  1  0  0  0  0
  2  3  2  0  0  0  0
  2  4  1  0  0  0  0
  4 38  1  0  0  0  0
  5  4  1  0  0  0  0
  5 39  1  0  0  0  0
  5  6  1  0  0  0  0
  5 10  1  0  0  0  0
  6  7  1  0  0  0  0
  6  8  1  0  0  0  0
  6  9  1  0  0  0  0
  7 40  1  0  0  0  0
  7 41  1  0  0  0  0
  7 42  1  0  0  0  0
  8 43  1  0  0  0  0
  8 44  1  0  0  0  0
  8 45  1  0  0  0  0
  9 46  1  0  0  0  0
  9 47  1  0  0  0  0
  9 48  1  0  0  0  0
 10 11  2  0  0  0  0
 10 12  1  0  0  0  0
 12 34  1  0  0  0  0
 13 12  1  0  0  0  0
 13 31  1  0  0  0  0
 13 49  1  0  0  0  0
 13 14  1  0  0  0  0
 14 15  2  0  0  0  0
 14 16  1  0  0  0  0
 16 50  1  0  0  0  0
 17 16  1  0  0  0  0
 17 51  1  0  0  0  0
 17 18  1  0  0  0  0
 17 19  1  0  0  0  0
 18 52  1  0  0  0  0
 18 53  1  0  0  0  0
 18 54  1  0  0  0  0
 19 20  1  0  0  0  0
 19 30  2  0  0  0  0
 20 55  1  0  0  0  0
 20 21  2  0  0  0  0
 21 56  1  0  0  0  0
 21 22  1  0  0  0  0
 22 29  2  0  0  0  0
 22 23  1  0  0  0  0
 23 24  2  0  0  0  0
 23 28  1  0  0  0  0
 24 25  1  0  0  0  0
 24 26  1  0  0  0  0
 25 57  1  0  0  0  0
 25 58  1  0  0  0  0
 25 59  1  0  0  0  0
 26 27  2  0  0  0  0
 27 60  1  0  0  0  0
 27 28  1  0  0  0  0
 29 61  1  0  0  0  0
 29 30  1  0  0  0  0
 30 62  1  0  0  0  0
 32 31  1  0  0  0  0
 31 63  1  0  0  0  0
 31 64  1  0  0  0  0
 32 34  1  0  0  0  0
 32 65  1  0  0  0  0
 32 33  1  0  0  0  0
 33 66  1  0  0  0  0
 34 67  1  0  0  0  0
 34 68  1  0  0  0  0
M  ZZC   1 c1
M  ZZC   2 c2
M  ZZC   3 o1
M  ZZC   4 n1
M  ZZC   5 c3
M  ZZC   6 c4
M  ZZC   7 c5
M  ZZC   8 c6
M  ZZC   9 c7
M  ZZC  10 c8
M  ZZC  11 o2
M  ZZC  12 n2
M  ZZC  13 c9
M  ZZC  14 c10
M  ZZC  15 o3
M  ZZC  16 n3
M  ZZC  17 c11
M  ZZC  18 c12
M  ZZC  19 c13
M  ZZC  20 c14
M  ZZC  21 c15
M  ZZC  22 c16
M  ZZC  23 c17
M  ZZC  24 c18
M  ZZC  25 c19
M  ZZC  26 n4
M  ZZC  27 c20
M  ZZC  28 s1
M  ZZC  29 c21
M  ZZC  30 c22
M  ZZC  31 c23
M  ZZC  32 c24
M  ZZC  33 o4
M  ZZC  34 c25
M  ZZC  35 h11
M  ZZC  36 h12
M  ZZC  37 h13
M  ZZC  38 h01
M  ZZC  39 h31
M  ZZC  40 h51
M  ZZC  41 h52
M  ZZC  42 h53
M  ZZC  43 h61
M  ZZC  44 h62
M  ZZC  45 h63
M  ZZC  46 h71
M  ZZC  47 h72
M  ZZC  48 h73
M  ZZC  49 h91
M  ZZC  50 h02
M  ZZC  51 h111
M  ZZC  52 h121
M  ZZC  53 h122
M  ZZC  54 h123
M  ZZC  55 h141
M  ZZC  56 h151
M  ZZC  57 h191
M  ZZC  58 h192
M  ZZC  59 h193
M  ZZC  60 h201
M  ZZC  61 h211
M  ZZC  62 h221
M  ZZC  63 h231
M  ZZC  64 h232
M  ZZC  65 h241
M  ZZC  66 h41
M  ZZC  67 h251
M  ZZC  68 h252
M  ZZM   1 1
M  ZZI   1 111
M  ZZM   2 3
M  ZZI   2 121
M  ZZM   3 7
M  ZZI   3 81
M  ZZM   4 10
M  ZZI   4 211
M  ZZM   5 1
M  ZZI   5 113
M  ZZM   6 1
M  ZZI   6 110
M  ZZM   7 1
M  ZZI   7 111
M  ZZM   8 1
M  ZZI   8 111
M  ZZM   9 1
M  ZZI   9 111
M  ZZM  10 3
M  ZZI  10 121
M  ZZM  11 7
M  ZZI  11 81
M  ZZM  12 10
M  ZZI  12 192
M  ZZM  13 1
M  ZZI  13 113
M  ZZM  14 3
M  ZZI  14 121
M  ZZM  15 7
M  ZZI  15 81
M  ZZM  16 10
M  ZZI  16 211
M  ZZM  17 1
M  ZZI  17 113
M  ZZM  18 1
M  ZZI  18 111
M  ZZM  19 37
M  ZZI  19 124
M  ZZM  20 37
M  ZZI  20 125
M  ZZM  21 37
M  ZZI  21 125
M  ZZM  22 37
M  ZZI  22 124
M  ZZM  23 63
M  ZZI  23 104
M  ZZM  24 64
M  ZZI  24 105
M  ZZM  25 1
M  ZZI  25 111
M  ZZM  26 66
M  ZZI  26 222
M  ZZM  27 63
M  ZZI  27 104
M  ZZM  28 44
M  ZZI  28 248
M  ZZM  29 37
M  ZZI  29 125
M  ZZM  30 37
M  ZZI  30 125
M  ZZM  31 1
M  ZZI  31 112
M  ZZM  32 1
M  ZZI  32 113
M  ZZM  33 6
M  ZZI  33 60
M  ZZM  34 1
M  ZZI  34 112
M  ZZM  35 5
M  ZZI  35 1
M  ZZM  36 5
M  ZZI  36 1
M  ZZM  37 5
M  ZZI  37 1
M  ZZM  38 28
M  ZZI  38 11
M  ZZM  39 5
M  ZZI  39 1
M  ZZM  40 5
M  ZZI  40 1
M  ZZM  41 5
M  ZZI  41 1
M  ZZM  42 5
M  ZZI  42 1
M  ZZM  43 5
M  ZZI  43 1
M  ZZM  44 5
M  ZZI  44 1
M  ZZM  45 5
M  ZZI  45 1
M  ZZM  46 5
M  ZZI  46 1
M  ZZM  47 5
M  ZZI  47 1
M  ZZM  48 5
M  ZZI  48 1
M  ZZM  49 5
M  ZZI  49 1
M  ZZM  50 28
M  ZZI  50 11
M  ZZM  51 5
M  ZZI  51 1
M  ZZM  52 5
M  ZZI  52 1
M  ZZM  53 5
M  ZZI  53 1
M  ZZM  54 5
M  ZZI  54 1
M  ZZM  55 5
M  ZZI  55 1
M  ZZM  56 5
M  ZZI  56 1
M  ZZM  57 5
M  ZZI  57 1
M  ZZM  58 5
M  ZZI  58 1
M  ZZM  59 5
M  ZZI  59 1
M  ZZM  60 5
M  ZZI  60 1
M  ZZM  61 5
M  ZZI  61 1
M  ZZM  62 5
M  ZZI  62 1
M  ZZM  63 5
M  ZZI  63 1
M  ZZM  64 5
M  ZZI  64 1
M  ZZM  65 5
M  ZZI  65 1
M  ZZM  66 21
M  ZZI  66 20
M  ZZM  67 5
M  ZZI  67 1
M  ZZM  68 5
M  ZZI  68 1
M  END
> <IX>
1

> <NAME>
VHL_1S9I_2.pdb

> <Score>
-18.709978

> <Natom>
68

> <Nflex>
8

> <Hbond>
-7.60534

> <Hphob>
-6.348679

> <VwInt>
-22.708607

> <Dsolv>
15.819036

> <SolEl>
11.518753

> <Eintl>
5.3785

> <RecConf>
ND

> <projPath>
VHL_maps/

> <NAME_>
VHL_1S9I_2.pdb

$$$$
