VHL_4QNQ_2.pdb
  MOLSOFT 04032206403D

 68 70  0  0  1  0  0  0  0  0999 V2000
   19.0584   -6.2322   -5.8450 C   0  0  0  0  0  0  0  0  0  0  0  0
   17.7183   -5.5778   -5.6374 C   0  0  0  0  0  0  0  0  0  0  0  0
   16.6852   -6.1704   -5.9090 O   0  0  0  0  0  0  0  0  0  0  0  0
   17.7974   -4.2895   -5.1378 N   0  0  0  0  0  0  0  0  0  0  0  0
   16.6493   -3.3982   -4.9501 C   0  0  1  0  0  0  0  0  0  0  0  0
   16.0013   -3.5011   -3.5280 C   0  0  0  0  0  0  0  0  0  0  0  0
   14.6402   -2.7899   -3.5101 C   0  0  0  0  0  0  0  0  0  0  0  0
   15.7416   -4.9613   -3.1264 C   0  0  0  0  0  0  0  0  0  0  0  0
   16.8929   -2.8775   -2.4439 C   0  0  0  0  0  0  0  0  0  0  0  0
   17.1817   -1.9844   -5.2760 C   0  0  0  0  0  0  0  0  0  0  0  0
   18.2912   -1.6392   -4.8955 O   0  0  0  0  0  0  0  0  0  0  0  0
   16.3731   -1.0864   -5.9763 N   0  0  0  0  0  0  0  0  0  0  0  0
   16.8549    0.2719   -6.2552 C   0  0  2  0  0  0  0  0  0  0  0  0
   16.7915    1.2247   -5.0598 C   0  0  0  0  0  0  0  0  0  0  0  0
   17.5064    2.2148   -5.0011 O   0  0  0  0  0  0  0  0  0  0  0  0
   15.7572    0.9780   -4.1766 N   0  0  0  0  0  0  0  0  0  0  0  0
   15.4348    1.8621   -3.0689 C   0  0  1  0  0  0  0  0  0  0  0  0
   14.3235    2.8291   -3.4807 C   0  0  0  0  0  0  0  0  0  0  0  0
   15.1276    1.0579   -1.8200 C   0  0  0  0  0  0  0  0  0  0  0  0
   13.8412    0.6437   -1.4729 C   0  0  0  0  0  0  0  0  0  0  0  0
   13.6119   -0.0816   -0.3148 C   0  0  0  0  0  0  0  0  0  0  0  0
   14.6601   -0.4178    0.5342 C   0  0  0  0  0  0  0  0  0  0  0  0
   14.4204   -1.1422    1.7736 C   0  0  0  0  0  0  0  0  0  0  0  0
   14.8522   -2.3907    2.1998 C   0  0  0  0  0  0  0  0  0  0  0  0
   15.7160   -3.3356    1.4603 C   0  0  0  0  0  0  0  0  0  0  0  0
   14.3946   -2.7758    3.4448 N   0  0  0  0  0  0  0  0  0  0  0  0
   13.6685   -1.8128    3.9645 C   0  0  0  0  0  0  0  0  0  0  0  0
   13.4939   -0.4049    3.0173 S   0  0  0  0  0  0  0  0  0  0  0  0
   15.9464   -0.0353    0.1783 C   0  0  0  0  0  0  0  0  0  0  0  0
   16.1742    0.6870   -0.9797 C   0  0  0  0  0  0  0  0  0  0  0  0
   15.9394    0.8010   -7.3539 C   0  0  0  0  0  0  0  0  0  0  0  0
   15.3527   -0.4458   -7.9809 C   0  0  1  0  0  0  0  0  0  0  0  0
   16.2252   -0.9612   -8.9973 O   0  0  0  0  0  0  0  0  0  0  0  0
   15.2486   -1.4256   -6.8248 C   0  0  0  0  0  0  0  0  0  0  0  0
   19.8803   -5.5301   -5.6882 H   0  0  0  0  0  0  0  0  0  0  0  0
   19.1217   -6.6027   -6.8714 H   0  0  0  0  0  0  0  0  0  0  0  0
   19.1620   -7.0721   -5.1533 H   0  0  0  0  0  0  0  0  0  0  0  0
   18.7142   -3.8994   -4.9461 H   0  0  0  0  0  0  0  0  0  0  0  0
   15.9271   -3.6928   -5.7038 H   0  0  0  0  0  0  0  0  0  0  0  0
   14.7444   -1.7173   -3.7027 H   0  0  0  0  0  0  0  0  0  0  0  0
   14.1430   -2.8988   -2.5417 H   0  0  0  0  0  0  0  0  0  0  0  0
   13.9657   -3.1789   -4.2713 H   0  0  0  0  0  0  0  0  0  0  0  0
   15.2189   -5.0288   -2.1665 H   0  0  0  0  0  0  0  0  0  0  0  0
   16.6680   -5.5321   -3.0199 H   0  0  0  0  0  0  0  0  0  0  0  0
   15.1175   -5.4685   -3.8635 H   0  0  0  0  0  0  0  0  0  0  0  0
   16.4592   -3.0108   -1.4491 H   0  0  0  0  0  0  0  0  0  0  0  0
   17.0267   -1.8024   -2.5887 H   0  0  0  0  0  0  0  0  0  0  0  0
   17.8846   -3.3354   -2.4273 H   0  0  0  0  0  0  0  0  0  0  0  0
   17.8956    0.2127   -6.5913 H   0  0  0  0  0  0  0  0  0  0  0  0
   15.1777    0.1626   -4.3287 H   0  0  0  0  0  0  0  0  0  0  0  0
   16.3166    2.4780   -2.8594 H   0  0  0  0  0  0  0  0  0  0  0  0
   14.6511    3.4664   -4.3081 H   0  0  0  0  0  0  0  0  0  0  0  0
   14.0299    3.4804   -2.6511 H   0  0  0  0  0  0  0  0  0  0  0  0
   13.4310    2.3008   -3.8291 H   0  0  0  0  0  0  0  0  0  0  0  0
   12.9922    0.8876   -2.1018 H   0  0  0  0  0  0  0  0  0  0  0  0
   12.5964   -0.3832   -0.0753 H   0  0  0  0  0  0  0  0  0  0  0  0
   15.1792   -3.7560    0.6056 H   0  0  0  0  0  0  0  0  0  0  0  0
   16.0235   -4.1720    2.0936 H   0  0  0  0  0  0  0  0  0  0  0  0
   16.6125   -2.8303    1.0901 H   0  0  0  0  0  0  0  0  0  0  0  0
   13.2095   -1.8966    4.9390 H   0  0  0  0  0  0  0  0  0  0  0  0
   16.7900   -0.2841    0.8154 H   0  0  0  0  0  0  0  0  0  0  0  0
   17.1945    0.9704   -1.2235 H   0  0  0  0  0  0  0  0  0  0  0  0
   15.1355    1.4186   -6.9370 H   0  0  0  0  0  0  0  0  0  0  0  0
   16.4921    1.4145   -8.0717 H   0  0  0  0  0  0  0  0  0  0  0  0
   14.3829   -0.2408   -8.4319 H   0  0  0  0  0  0  0  0  0  0  0  0
   17.1389   -0.9129   -8.6567 H   0  0  0  0  0  0  0  0  0  0  0  0
   15.2951   -2.4620   -7.1657 H   0  0  0  0  0  0  0  0  0  0  0  0
   14.3349   -1.2605   -6.2442 H   0  0  0  0  0  0  0  0  0  0  0  0
  1 35  1  0  0  0  0
  1 36  1  0  0  0  0
  1 37  1  0  0  0  0
  1  2  1  0  0  0  0
  2  3  2  0  0  0  0
  2  4  1  0  0  0  0
  4 38  1  0  0  0  0
  5  4  1  0  0  0  0
  5 39  1  0  0  0  0
  5  6  1  0  0  0  0
  5 10  1  0  0  0  0
  6  7  1  0  0  0  0
  6  8  1  0  0  0  0
  6  9  1  0  0  0  0
  7 40  1  0  0  0  0
  7 41  1  0  0  0  0
  7 42  1  0  0  0  0
  8 43  1  0  0  0  0
  8 44  1  0  0  0  0
  8 45  1  0  0  0  0
  9 46  1  0  0  0  0
  9 47  1  0  0  0  0
  9 48  1  0  0  0  0
 10 11  2  0  0  0  0
 10 12  1  0  0  0  0
 12 34  1  0  0  0  0
 13 12  1  0  0  0  0
 13 31  1  0  0  0  0
 13 49  1  0  0  0  0
 13 14  1  0  0  0  0
 14 15  2  0  0  0  0
 14 16  1  0  0  0  0
 16 50  1  0  0  0  0
 17 16  1  0  0  0  0
 17 51  1  0  0  0  0
 17 18  1  0  0  0  0
 17 19  1  0  0  0  0
 18 52  1  0  0  0  0
 18 53  1  0  0  0  0
 18 54  1  0  0  0  0
 19 20  1  0  0  0  0
 19 30  2  0  0  0  0
 20 55  1  0  0  0  0
 20 21  2  0  0  0  0
 21 56  1  0  0  0  0
 21 22  1  0  0  0  0
 22 29  2  0  0  0  0
 22 23  1  0  0  0  0
 23 24  2  0  0  0  0
 23 28  1  0  0  0  0
 24 25  1  0  0  0  0
 24 26  1  0  0  0  0
 25 57  1  0  0  0  0
 25 58  1  0  0  0  0
 25 59  1  0  0  0  0
 26 27  2  0  0  0  0
 27 60  1  0  0  0  0
 27 28  1  0  0  0  0
 29 61  1  0  0  0  0
 29 30  1  0  0  0  0
 30 62  1  0  0  0  0
 32 31  1  0  0  0  0
 31 63  1  0  0  0  0
 31 64  1  0  0  0  0
 32 34  1  0  0  0  0
 32 65  1  0  0  0  0
 32 33  1  0  0  0  0
 33 66  1  0  0  0  0
 34 67  1  0  0  0  0
 34 68  1  0  0  0  0
M  ZZC   1 c1
M  ZZC   2 c2
M  ZZC   3 o1
M  ZZC   4 n1
M  ZZC   5 c3
M  ZZC   6 c4
M  ZZC   7 c5
M  ZZC   8 c6
M  ZZC   9 c7
M  ZZC  10 c8
M  ZZC  11 o2
M  ZZC  12 n2
M  ZZC  13 c9
M  ZZC  14 c10
M  ZZC  15 o3
M  ZZC  16 n3
M  ZZC  17 c11
M  ZZC  18 c12
M  ZZC  19 c13
M  ZZC  20 c14
M  ZZC  21 c15
M  ZZC  22 c16
M  ZZC  23 c17
M  ZZC  24 c18
M  ZZC  25 c19
M  ZZC  26 n4
M  ZZC  27 c20
M  ZZC  28 s1
M  ZZC  29 c21
M  ZZC  30 c22
M  ZZC  31 c23
M  ZZC  32 c24
M  ZZC  33 o4
M  ZZC  34 c25
M  ZZC  35 h11
M  ZZC  36 h12
M  ZZC  37 h13
M  ZZC  38 h01
M  ZZC  39 h31
M  ZZC  40 h51
M  ZZC  41 h52
M  ZZC  42 h53
M  ZZC  43 h61
M  ZZC  44 h62
M  ZZC  45 h63
M  ZZC  46 h71
M  ZZC  47 h72
M  ZZC  48 h73
M  ZZC  49 h91
M  ZZC  50 h02
M  ZZC  51 h111
M  ZZC  52 h121
M  ZZC  53 h122
M  ZZC  54 h123
M  ZZC  55 h141
M  ZZC  56 h151
M  ZZC  57 h191
M  ZZC  58 h192
M  ZZC  59 h193
M  ZZC  60 h201
M  ZZC  61 h211
M  ZZC  62 h221
M  ZZC  63 h231
M  ZZC  64 h232
M  ZZC  65 h241
M  ZZC  66 h41
M  ZZC  67 h251
M  ZZC  68 h252
M  ZZM   1 1
M  ZZI   1 111
M  ZZM   2 3
M  ZZI   2 121
M  ZZM   3 7
M  ZZI   3 81
M  ZZM   4 10
M  ZZI   4 211
M  ZZM   5 1
M  ZZI   5 113
M  ZZM   6 1
M  ZZI   6 110
M  ZZM   7 1
M  ZZI   7 111
M  ZZM   8 1
M  ZZI   8 111
M  ZZM   9 1
M  ZZI   9 111
M  ZZM  10 3
M  ZZI  10 121
M  ZZM  11 7
M  ZZI  11 81
M  ZZM  12 10
M  ZZI  12 192
M  ZZM  13 1
M  ZZI  13 113
M  ZZM  14 3
M  ZZI  14 121
M  ZZM  15 7
M  ZZI  15 81
M  ZZM  16 10
M  ZZI  16 211
M  ZZM  17 1
M  ZZI  17 113
M  ZZM  18 1
M  ZZI  18 111
M  ZZM  19 37
M  ZZI  19 124
M  ZZM  20 37
M  ZZI  20 125
M  ZZM  21 37
M  ZZI  21 125
M  ZZM  22 37
M  ZZI  22 124
M  ZZM  23 63
M  ZZI  23 104
M  ZZM  24 64
M  ZZI  24 105
M  ZZM  25 1
M  ZZI  25 111
M  ZZM  26 66
M  ZZI  26 222
M  ZZM  27 63
M  ZZI  27 104
M  ZZM  28 44
M  ZZI  28 248
M  ZZM  29 37
M  ZZI  29 125
M  ZZM  30 37
M  ZZI  30 125
M  ZZM  31 1
M  ZZI  31 112
M  ZZM  32 1
M  ZZI  32 113
M  ZZM  33 6
M  ZZI  33 60
M  ZZM  34 1
M  ZZI  34 112
M  ZZM  35 5
M  ZZI  35 1
M  ZZM  36 5
M  ZZI  36 1
M  ZZM  37 5
M  ZZI  37 1
M  ZZM  38 28
M  ZZI  38 11
M  ZZM  39 5
M  ZZI  39 1
M  ZZM  40 5
M  ZZI  40 1
M  ZZM  41 5
M  ZZI  41 1
M  ZZM  42 5
M  ZZI  42 1
M  ZZM  43 5
M  ZZI  43 1
M  ZZM  44 5
M  ZZI  44 1
M  ZZM  45 5
M  ZZI  45 1
M  ZZM  46 5
M  ZZI  46 1
M  ZZM  47 5
M  ZZI  47 1
M  ZZM  48 5
M  ZZI  48 1
M  ZZM  49 5
M  ZZI  49 1
M  ZZM  50 28
M  ZZI  50 11
M  ZZM  51 5
M  ZZI  51 1
M  ZZM  52 5
M  ZZI  52 1
M  ZZM  53 5
M  ZZI  53 1
M  ZZM  54 5
M  ZZI  54 1
M  ZZM  55 5
M  ZZI  55 1
M  ZZM  56 5
M  ZZI  56 1
M  ZZM  57 5
M  ZZI  57 1
M  ZZM  58 5
M  ZZI  58 1
M  ZZM  59 5
M  ZZI  59 1
M  ZZM  60 5
M  ZZI  60 1
M  ZZM  61 5
M  ZZI  61 1
M  ZZM  62 5
M  ZZI  62 1
M  ZZM  63 5
M  ZZI  63 1
M  ZZM  64 5
M  ZZI  64 1
M  ZZM  65 5
M  ZZI  65 1
M  ZZM  66 21
M  ZZI  66 20
M  ZZM  67 5
M  ZZI  67 1
M  ZZM  68 5
M  ZZI  68 1
M  END
> <IX>
1

> <NAME>
VHL_4QNQ_2.pdb

> <Score>
-26.026963

> <Natom>
68

> <Nflex>
8

> <Hbond>
-7.790645

> <Hphob>
-6.951144

> <VwInt>
-28.125672

> <Dsolv>
17.356356

> <SolEl>
9.555219

> <Eintl>
3.904328

> <RecConf>
ND

> <projPath>
VHL_maps/

> <NAME_>
VHL_4QNQ_2.pdb

$$$$
