VHL_5G0I_2.pdb
  MOLSOFT 04032206393D

 65 67  0  0  1  0  0  0  0  0999 V2000
   18.1216   -6.6766   -5.1322 C   0  0  0  0  0  0  0  0  0  0  0  0
   16.9072   -5.8015   -4.9832 C   0  0  0  0  0  0  0  0  0  0  0  0
   15.8222   -6.1600   -5.4074 O   0  0  0  0  0  0  0  0  0  0  0  0
   17.1509   -4.6224   -4.3067 N   0  0  0  0  0  0  0  0  0  0  0  0
   16.1425   -3.5842   -4.0375 C   0  0  1  0  0  0  0  0  0  0  0  0
   15.8833   -3.4109   -2.5116 C   0  0  0  0  0  0  0  0  0  0  0  0
   14.7744   -2.3958   -2.2118 C   0  0  0  0  0  0  0  0  0  0  0  0
   17.1391   -2.9568   -1.7539 C   0  0  0  0  0  0  0  0  0  0  0  0
   15.4114   -4.7586   -1.9515 C   0  0  0  0  0  0  0  0  0  0  0  0
   16.6505   -2.3379   -4.7932 C   0  0  0  0  0  0  0  0  0  0  0  0
   17.8469   -2.0751   -4.8331 O   0  0  0  0  0  0  0  0  0  0  0  0
   15.7102   -1.5530   -5.4680 N   0  0  0  0  0  0  0  0  0  0  0  0
   16.1220   -0.6293   -6.5150 C   0  0  2  0  0  0  0  0  0  0  0  0
   16.5187    0.7469   -5.9730 C   0  0  0  0  0  0  0  0  0  0  0  0
   15.9717    1.2669   -5.0099 O   0  0  0  0  0  0  0  0  0  0  0  0
   17.5008    1.3688   -6.7214 N   0  0  0  0  0  0  0  0  0  0  0  0
   17.9720    2.7037   -6.3939 C   0  0  0  0  0  0  0  0  0  0  0  0
   19.2998    3.0595   -7.0192 C   0  0  0  0  0  0  0  0  0  0  0  0
   19.5888    4.3733   -7.3737 C   0  0  0  0  0  0  0  0  0  0  0  0
   20.8233    4.7199   -7.9038 C   0  0  0  0  0  0  0  0  0  0  0  0
   21.8221    3.7676   -8.0907 C   0  0  0  0  0  0  0  0  0  0  0  0
   23.1162    4.1115   -8.6861 C   0  0  0  0  0  0  0  0  0  0  0  0
   23.4461    4.9436   -9.7529 C   0  0  0  0  0  0  0  0  0  0  0  0
   22.5275    5.7339  -10.6067 C   0  0  0  0  0  0  0  0  0  0  0  0
   24.7929    5.0138  -10.0517 N   0  0  0  0  0  0  0  0  0  0  0  0
   25.4736    4.2488   -9.2310 C   0  0  0  0  0  0  0  0  0  0  0  0
   24.5652    3.4243   -8.0507 S   0  0  0  0  0  0  0  0  0  0  0  0
   21.5329    2.4614   -7.7089 C   0  0  0  0  0  0  0  0  0  0  0  0
   20.3010    2.1139   -7.1899 C   0  0  0  0  0  0  0  0  0  0  0  0
   14.8945   -0.5303   -7.4074 C   0  0  0  0  0  0  0  0  0  0  0  0
   13.7298   -0.6629   -6.4369 C   0  0  1  0  0  0  0  0  0  0  0  0
   12.5929   -1.2671   -7.0484 O   0  0  0  0  0  0  0  0  0  0  0  0
   14.2629   -1.5692   -5.3404 C   0  0  0  0  0  0  0  0  0  0  0  0
   19.0261   -6.0751   -5.2651 H   0  0  0  0  0  0  0  0  0  0  0  0
   18.0024   -7.3177   -6.0108 H   0  0  0  0  0  0  0  0  0  0  0  0
   18.2205   -7.3031   -4.2428 H   0  0  0  0  0  0  0  0  0  0  0  0
   18.1112   -4.4175   -4.0545 H   0  0  0  0  0  0  0  0  0  0  0  0
   15.2144   -3.9206   -4.4987 H   0  0  0  0  0  0  0  0  0  0  0  0
   15.0592   -1.3876   -2.5304 H   0  0  0  0  0  0  0  0  0  0  0  0
   14.5642   -2.3392   -1.1394 H   0  0  0  0  0  0  0  0  0  0  0  0
   13.8501   -2.6380   -2.7435 H   0  0  0  0  0  0  0  0  0  0  0  0
   16.9515   -2.8851   -0.6776 H   0  0  0  0  0  0  0  0  0  0  0  0
   17.4829   -1.9735   -2.0892 H   0  0  0  0  0  0  0  0  0  0  0  0
   17.9641   -3.6542   -1.8850 H   0  0  0  0  0  0  0  0  0  0  0  0
   15.1474   -4.6727   -0.8950 H   0  0  0  0  0  0  0  0  0  0  0  0
   16.1807   -5.5277   -2.0418 H   0  0  0  0  0  0  0  0  0  0  0  0
   14.5251   -5.1252   -2.4792 H   0  0  0  0  0  0  0  0  0  0  0  0
   16.9693   -1.0531   -7.0633 H   0  0  0  0  0  0  0  0  0  0  0  0
   17.9156    0.8756   -7.5068 H   0  0  0  0  0  0  0  0  0  0  0  0
   17.1951    3.3971   -6.7343 H   0  0  0  0  0  0  0  0  0  0  0  0
   18.0471    2.7962   -5.3048 H   0  0  0  0  0  0  0  0  0  0  0  0
   18.8426    5.1506   -7.2369 H   0  0  0  0  0  0  0  0  0  0  0  0
   20.9987    5.7591   -8.1622 H   0  0  0  0  0  0  0  0  0  0  0  0
   23.0061    5.9984  -11.5541 H   0  0  0  0  0  0  0  0  0  0  0  0
   22.2409    6.6631  -10.1065 H   0  0  0  0  0  0  0  0  0  0  0  0
   21.6204    5.1745  -10.8465 H   0  0  0  0  0  0  0  0  0  0  0  0
   26.5480    4.1464   -9.2893 H   0  0  0  0  0  0  0  0  0  0  0  0
   22.2644    1.6724   -7.8338 H   0  0  0  0  0  0  0  0  0  0  0  0
   20.1262    1.0775   -6.9249 H   0  0  0  0  0  0  0  0  0  0  0  0
   14.8432    0.3987   -7.9851 H   0  0  0  0  0  0  0  0  0  0  0  0
   14.8840   -1.3593   -8.1236 H   0  0  0  0  0  0  0  0  0  0  0  0
   13.4341    0.3107   -6.0294 H   0  0  0  0  0  0  0  0  0  0  0  0
   12.2680   -0.6706   -7.7467 H   0  0  0  0  0  0  0  0  0  0  0  0
   13.8724   -2.5866   -5.3895 H   0  0  0  0  0  0  0  0  0  0  0  0
   13.9867   -1.1514   -4.3723 H   0  0  0  0  0  0  0  0  0  0  0  0
  1 34  1  0  0  0  0
  1 35  1  0  0  0  0
  1 36  1  0  0  0  0
  1  2  1  0  0  0  0
  2  3  2  0  0  0  0
  2  4  1  0  0  0  0
  4 37  1  0  0  0  0
  5  4  1  0  0  0  0
  5 38  1  0  0  0  0
  5  6  1  0  0  0  0
  5 10  1  0  0  0  0
  6  7  1  0  0  0  0
  6  8  1  0  0  0  0
  6  9  1  0  0  0  0
  7 39  1  0  0  0  0
  7 40  1  0  0  0  0
  7 41  1  0  0  0  0
  8 42  1  0  0  0  0
  8 43  1  0  0  0  0
  8 44  1  0  0  0  0
  9 45  1  0  0  0  0
  9 46  1  0  0  0  0
  9 47  1  0  0  0  0
 10 11  2  0  0  0  0
 10 12  1  0  0  0  0
 12 33  1  0  0  0  0
 13 12  1  0  0  0  0
 13 30  1  0  0  0  0
 13 48  1  0  0  0  0
 13 14  1  0  0  0  0
 14 15  2  0  0  0  0
 14 16  1  0  0  0  0
 16 49  1  0  0  0  0
 16 17  1  0  0  0  0
 17 50  1  0  0  0  0
 17 51  1  0  0  0  0
 17 18  1  0  0  0  0
 18 19  1  0  0  0  0
 18 29  2  0  0  0  0
 19 52  1  0  0  0  0
 19 20  2  0  0  0  0
 20 53  1  0  0  0  0
 20 21  1  0  0  0  0
 21 28  2  0  0  0  0
 21 22  1  0  0  0  0
 22 23  2  0  0  0  0
 22 27  1  0  0  0  0
 23 24  1  0  0  0  0
 23 25  1  0  0  0  0
 24 54  1  0  0  0  0
 24 55  1  0  0  0  0
 24 56  1  0  0  0  0
 25 26  2  0  0  0  0
 26 57  1  0  0  0  0
 26 27  1  0  0  0  0
 28 58  1  0  0  0  0
 28 29  1  0  0  0  0
 29 59  1  0  0  0  0
 31 30  1  0  0  0  0
 30 60  1  0  0  0  0
 30 61  1  0  0  0  0
 31 33  1  0  0  0  0
 31 62  1  0  0  0  0
 31 32  1  0  0  0  0
 32 63  1  0  0  0  0
 33 64  1  0  0  0  0
 33 65  1  0  0  0  0
M  ZZC   1 c1
M  ZZC   2 c2
M  ZZC   3 o1
M  ZZC   4 n1
M  ZZC   5 c3
M  ZZC   6 c4
M  ZZC   7 c5
M  ZZC   8 c6
M  ZZC   9 c7
M  ZZC  10 c8
M  ZZC  11 o2
M  ZZC  12 n2
M  ZZC  13 c9
M  ZZC  14 c10
M  ZZC  15 o3
M  ZZC  16 n3
M  ZZC  17 c11
M  ZZC  18 c12
M  ZZC  19 c13
M  ZZC  20 c14
M  ZZC  21 c15
M  ZZC  22 c16
M  ZZC  23 c17
M  ZZC  24 c18
M  ZZC  25 n4
M  ZZC  26 c19
M  ZZC  27 s1
M  ZZC  28 c20
M  ZZC  29 c21
M  ZZC  30 c22
M  ZZC  31 c23
M  ZZC  32 o4
M  ZZC  33 c24
M  ZZC  34 h11
M  ZZC  35 h12
M  ZZC  36 h13
M  ZZC  37 h01
M  ZZC  38 h31
M  ZZC  39 h51
M  ZZC  40 h52
M  ZZC  41 h53
M  ZZC  42 h61
M  ZZC  43 h62
M  ZZC  44 h63
M  ZZC  45 h71
M  ZZC  46 h72
M  ZZC  47 h73
M  ZZC  48 h91
M  ZZC  49 h02
M  ZZC  50 h111
M  ZZC  51 h112
M  ZZC  52 h131
M  ZZC  53 h141
M  ZZC  54 h181
M  ZZC  55 h182
M  ZZC  56 h183
M  ZZC  57 h191
M  ZZC  58 h201
M  ZZC  59 h211
M  ZZC  60 h221
M  ZZC  61 h222
M  ZZC  62 h231
M  ZZC  63 h41
M  ZZC  64 h241
M  ZZC  65 h242
M  ZZM   1 1
M  ZZI   1 111
M  ZZM   2 3
M  ZZI   2 121
M  ZZM   3 7
M  ZZI   3 81
M  ZZM   4 10
M  ZZI   4 211
M  ZZM   5 1
M  ZZI   5 113
M  ZZM   6 1
M  ZZI   6 110
M  ZZM   7 1
M  ZZI   7 111
M  ZZM   8 1
M  ZZI   8 111
M  ZZM   9 1
M  ZZI   9 111
M  ZZM  10 3
M  ZZI  10 121
M  ZZM  11 7
M  ZZI  11 81
M  ZZM  12 10
M  ZZI  12 192
M  ZZM  13 1
M  ZZI  13 113
M  ZZM  14 3
M  ZZI  14 121
M  ZZM  15 7
M  ZZI  15 81
M  ZZM  16 10
M  ZZI  16 211
M  ZZM  17 1
M  ZZI  17 112
M  ZZM  18 37
M  ZZI  18 124
M  ZZM  19 37
M  ZZI  19 125
M  ZZM  20 37
M  ZZI  20 125
M  ZZM  21 37
M  ZZI  21 124
M  ZZM  22 63
M  ZZI  22 104
M  ZZM  23 64
M  ZZI  23 105
M  ZZM  24 1
M  ZZI  24 111
M  ZZM  25 66
M  ZZI  25 222
M  ZZM  26 63
M  ZZI  26 104
M  ZZM  27 44
M  ZZI  27 248
M  ZZM  28 37
M  ZZI  28 125
M  ZZM  29 37
M  ZZI  29 125
M  ZZM  30 1
M  ZZI  30 112
M  ZZM  31 1
M  ZZI  31 113
M  ZZM  32 6
M  ZZI  32 60
M  ZZM  33 1
M  ZZI  33 112
M  ZZM  34 5
M  ZZI  34 1
M  ZZM  35 5
M  ZZI  35 1
M  ZZM  36 5
M  ZZI  36 1
M  ZZM  37 28
M  ZZI  37 11
M  ZZM  38 5
M  ZZI  38 1
M  ZZM  39 5
M  ZZI  39 1
M  ZZM  40 5
M  ZZI  40 1
M  ZZM  41 5
M  ZZI  41 1
M  ZZM  42 5
M  ZZI  42 1
M  ZZM  43 5
M  ZZI  43 1
M  ZZM  44 5
M  ZZI  44 1
M  ZZM  45 5
M  ZZI  45 1
M  ZZM  46 5
M  ZZI  46 1
M  ZZM  47 5
M  ZZI  47 1
M  ZZM  48 5
M  ZZI  48 1
M  ZZM  49 28
M  ZZI  49 11
M  ZZM  50 5
M  ZZI  50 1
M  ZZM  51 5
M  ZZI  51 1
M  ZZM  52 5
M  ZZI  52 1
M  ZZM  53 5
M  ZZI  53 1
M  ZZM  54 5
M  ZZI  54 1
M  ZZM  55 5
M  ZZI  55 1
M  ZZM  56 5
M  ZZI  56 1
M  ZZM  57 5
M  ZZI  57 1
M  ZZM  58 5
M  ZZI  58 1
M  ZZM  59 5
M  ZZI  59 1
M  ZZM  60 5
M  ZZI  60 1
M  ZZM  61 5
M  ZZI  61 1
M  ZZM  62 5
M  ZZI  62 1
M  ZZM  63 21
M  ZZI  63 20
M  ZZM  64 5
M  ZZI  64 1
M  ZZM  65 5
M  ZZI  65 1
M  END
> <IX>
1

> <NAME>
VHL_5G0I_2.pdb

> <Score>
-10.701102

> <Natom>
65

> <Nflex>
8

> <Hbond>
-5.002576

> <Hphob>
-6.404819

> <VwInt>
-26.7432

> <Dsolv>
16.513424

> <SolEl>
17.068142

> <Eintl>
7.566338

> <RecConf>
ND

> <projPath>
VHL_maps/

> <NAME_>
VHL_5G0I_2.pdb

$$$$
