VHL_5EU1_21.pdb
  MOLSOFT 04032206423D

 70 73  0  0  1  0  0  0  0  0999 V2000
   16.0401    2.3097   -2.7254 F   0  0  0  0  0  0  0  0  0  0  0  0
   14.8522    2.8642   -2.2601 C   0  0  0  0  0  0  0  0  0  0  0  0
   14.1439    3.7563   -3.2127 C   0  0  0  0  0  0  0  0  0  0  0  0
   12.9844    3.5370   -3.5246 O   0  0  0  0  0  0  0  0  0  0  0  0
   14.8906    4.8239   -3.6656 N   0  0  0  0  0  0  0  0  0  0  0  0
   14.3374    5.8527   -4.5515 C   0  0  1  0  0  0  0  0  0  0  0  0
   13.9768    7.1684   -3.7838 C   0  0  0  0  0  0  0  0  0  0  0  0
   15.1515    7.6806   -2.9320 C   0  0  0  0  0  0  0  0  0  0  0  0
   12.7897    6.9096   -2.8486 C   0  0  0  0  0  0  0  0  0  0  0  0
   13.5546    8.3006   -4.7349 C   0  0  0  0  0  0  0  0  0  0  0  0
   15.3809    6.0792   -5.6565 C   0  0  0  0  0  0  0  0  0  0  0  0
   16.5750    6.1251   -5.3905 O   0  0  0  0  0  0  0  0  0  0  0  0
   14.9157    6.2947   -6.9567 N   0  0  0  0  0  0  0  0  0  0  0  0
   13.5584    6.1736   -7.4870 C   0  0  2  0  0  0  0  0  0  0  0  0
   13.2536    4.8244   -8.1611 C   0  0  0  0  0  0  0  0  0  0  0  0
   12.2999    4.7107   -8.9183 O   0  0  0  0  0  0  0  0  0  0  0  0
   14.0395    3.7518   -7.7755 N   0  0  0  0  0  0  0  0  0  0  0  0
   13.8241    2.4270   -8.3304 C   0  0  0  0  0  0  0  0  0  0  0  0
   14.1540    1.3125   -7.3666 C   0  0  0  0  0  0  0  0  0  0  0  0
   15.4010    0.6956   -7.3131 C   0  0  0  0  0  0  0  0  0  0  0  0
   16.3781    1.0765   -8.2170 O   0  0  0  0  0  0  0  0  0  0  0  0
   15.6867   -0.3028   -6.3885 C   0  0  0  0  0  0  0  0  0  0  0  0
   14.7196   -0.7475   -5.4860 C   0  0  0  0  0  0  0  0  0  0  0  0
   15.0057   -1.7987   -4.4954 C   0  0  0  0  0  0  0  0  0  0  0  0
   15.8869   -2.8814   -4.5049 C   0  0  0  0  0  0  0  0  0  0  0  0
   16.8150   -3.2964   -5.5806 C   0  0  0  0  0  0  0  0  0  0  0  0
   15.8750   -3.6711   -3.3717 N   0  0  0  0  0  0  0  0  0  0  0  0
   15.0110   -3.1982   -2.5072 C   0  0  0  0  0  0  0  0  0  0  0  0
   14.1720   -1.7938   -2.9819 S   0  0  0  0  0  0  0  0  0  0  0  0
   13.4624   -0.1441   -5.5642 C   0  0  0  0  0  0  0  0  0  0  0  0
   13.1884    0.8598   -6.4773 C   0  0  0  0  0  0  0  0  0  0  0  0
   13.4929    7.3020   -8.4977 C   0  0  0  0  0  0  0  0  0  0  0  0
   14.8877    7.3058   -9.0941 C   0  0  1  0  0  0  0  0  0  0  0  0
   15.2259    8.6072   -9.5794 O   0  0  0  0  0  0  0  0  0  0  0  0
   15.8008    6.8520   -7.9604 C   0  0  0  0  0  0  0  0  0  0  0  0
   14.0761    1.9955   -1.2991 C   0  0  0  0  0  0  0  0  0  0  0  0
   14.8295    3.1854   -0.7875 C   0  0  0  0  0  0  0  0  0  0  0  0
   15.8646    4.8989   -3.3847 H   0  0  0  0  0  0  0  0  0  0  0  0
   13.4345    5.4306   -4.9943 H   0  0  0  0  0  0  0  0  0  0  0  0
   14.8978    8.5972   -2.3907 H   0  0  0  0  0  0  0  0  0  0  0  0
   16.0211    7.9131   -3.5556 H   0  0  0  0  0  0  0  0  0  0  0  0
   15.4770    6.9381   -2.1977 H   0  0  0  0  0  0  0  0  0  0  0  0
   12.5024    7.8142   -2.3032 H   0  0  0  0  0  0  0  0  0  0  0  0
   13.0220    6.1467   -2.0998 H   0  0  0  0  0  0  0  0  0  0  0  0
   11.9112    6.5806   -3.4130 H   0  0  0  0  0  0  0  0  0  0  0  0
   14.3626    8.5562   -5.4279 H   0  0  0  0  0  0  0  0  0  0  0  0
   13.3106    9.2167   -4.1902 H   0  0  0  0  0  0  0  0  0  0  0  0
   12.6940    8.0274   -5.3517 H   0  0  0  0  0  0  0  0  0  0  0  0
   12.8110    6.3235   -6.7089 H   0  0  0  0  0  0  0  0  0  0  0  0
   14.8277    3.9022   -7.1563 H   0  0  0  0  0  0  0  0  0  0  0  0
   12.7851    2.3408   -8.6596 H   0  0  0  0  0  0  0  0  0  0  0  0
   14.4224    2.3581   -9.2399 H   0  0  0  0  0  0  0  0  0  0  0  0
   17.1787    0.5378   -8.0598 H   0  0  0  0  0  0  0  0  0  0  0  0
   16.6853   -0.7239   -6.3704 H   0  0  0  0  0  0  0  0  0  0  0  0
   17.0617   -4.3593   -5.4972 H   0  0  0  0  0  0  0  0  0  0  0  0
   17.7493   -2.7317   -5.5200 H   0  0  0  0  0  0  0  0  0  0  0  0
   16.3673   -3.1405   -6.5658 H   0  0  0  0  0  0  0  0  0  0  0  0
   14.8401   -3.6653   -1.5477 H   0  0  0  0  0  0  0  0  0  0  0  0
   12.6536   -0.4515   -4.9105 H   0  0  0  0  0  0  0  0  0  0  0  0
   12.1907    1.2859   -6.4987 H   0  0  0  0  0  0  0  0  0  0  0  0
   12.7247    7.1760   -9.2656 H   0  0  0  0  0  0  0  0  0  0  0  0
   13.2863    8.2552   -7.9975 H   0  0  0  0  0  0  0  0  0  0  0  0
   14.9415    6.5928   -9.9207 H   0  0  0  0  0  0  0  0  0  0  0  0
   15.1075    9.2538   -8.8611 H   0  0  0  0  0  0  0  0  0  0  0  0
   16.3885    7.6700   -7.5290 H   0  0  0  0  0  0  0  0  0  0  0  0
   16.4951    6.0713   -8.2894 H   0  0  0  0  0  0  0  0  0  0  0  0
   12.9939    2.0463   -1.3078 H   0  0  0  0  0  0  0  0  0  0  0  0
   14.4725    1.0129   -1.0787 H   0  0  0  0  0  0  0  0  0  0  0  0
   15.7347    3.0066   -0.2214 H   0  0  0  0  0  0  0  0  0  0  0  0
   14.2549    4.0409   -0.4536 H   0  0  0  0  0  0  0  0  0  0  0  0
  2  1  1  0  0  0  0
  2 36  1  0  0  0  0
  2  3  1  0  0  0  0
  2 37  1  0  0  0  0
  3  4  2  0  0  0  0
  3  5  1  0  0  0  0
  5 38  1  0  0  0  0
  6  5  1  0  0  0  0
  6 39  1  0  0  0  0
  6  7  1  0  0  0  0
  6 11  1  0  0  0  0
  7  8  1  0  0  0  0
  7  9  1  0  0  0  0
  7 10  1  0  0  0  0
  8 40  1  0  0  0  0
  8 41  1  0  0  0  0
  8 42  1  0  0  0  0
  9 43  1  0  0  0  0
  9 44  1  0  0  0  0
  9 45  1  0  0  0  0
 10 46  1  0  0  0  0
 10 47  1  0  0  0  0
 10 48  1  0  0  0  0
 11 12  2  0  0  0  0
 11 13  1  0  0  0  0
 13 35  1  0  0  0  0
 14 13  1  0  0  0  0
 14 32  1  0  0  0  0
 14 49  1  0  0  0  0
 14 15  1  0  0  0  0
 15 16  2  0  0  0  0
 15 17  1  0  0  0  0
 17 50  1  0  0  0  0
 17 18  1  0  0  0  0
 18 51  1  0  0  0  0
 18 52  1  0  0  0  0
 18 19  1  0  0  0  0
 19 20  2  0  0  0  0
 19 31  1  0  0  0  0
 20 21  1  0  0  0  0
 20 22  1  0  0  0  0
 21 53  1  0  0  0  0
 22 54  1  0  0  0  0
 22 23  2  0  0  0  0
 23 30  1  0  0  0  0
 23 24  1  0  0  0  0
 24 25  2  0  0  0  0
 24 29  1  0  0  0  0
 25 26  1  0  0  0  0
 25 27  1  0  0  0  0
 26 55  1  0  0  0  0
 26 56  1  0  0  0  0
 26 57  1  0  0  0  0
 27 28  2  0  0  0  0
 28 58  1  0  0  0  0
 28 29  1  0  0  0  0
 30 59  1  0  0  0  0
 30 31  2  0  0  0  0
 31 60  1  0  0  0  0
 33 32  1  0  0  0  0
 32 61  1  0  0  0  0
 32 62  1  0  0  0  0
 33 35  1  0  0  0  0
 33 63  1  0  0  0  0
 33 34  1  0  0  0  0
 34 64  1  0  0  0  0
 35 65  1  0  0  0  0
 35 66  1  0  0  0  0
 36 67  1  0  0  0  0
 36 68  1  0  0  0  0
 36 37  1  0  0  0  0
 37 69  1  0  0  0  0
 37 70  1  0  0  0  0
M  ZZC   1 f1
M  ZZC   2 c1
M  ZZC   3 c2
M  ZZC   4 o1
M  ZZC   5 n1
M  ZZC   6 c3
M  ZZC   7 c4
M  ZZC   8 c5
M  ZZC   9 c6
M  ZZC  10 c7
M  ZZC  11 c8
M  ZZC  12 o2
M  ZZC  13 n2
M  ZZC  14 c9
M  ZZC  15 c10
M  ZZC  16 o3
M  ZZC  17 n3
M  ZZC  18 c11
M  ZZC  19 c12
M  ZZC  20 c13
M  ZZC  21 o4
M  ZZC  22 c14
M  ZZC  23 c15
M  ZZC  24 c16
M  ZZC  25 c17
M  ZZC  26 c18
M  ZZC  27 n4
M  ZZC  28 c19
M  ZZC  29 s1
M  ZZC  30 c20
M  ZZC  31 c21
M  ZZC  32 c22
M  ZZC  33 c23
M  ZZC  34 o5
M  ZZC  35 c24
M  ZZC  36 c25
M  ZZC  37 c26
M  ZZC  38 h11
M  ZZC  39 h31
M  ZZC  40 h51
M  ZZC  41 h52
M  ZZC  42 h53
M  ZZC  43 h61
M  ZZC  44 h62
M  ZZC  45 h63
M  ZZC  46 h71
M  ZZC  47 h72
M  ZZC  48 h73
M  ZZC  49 h91
M  ZZC  50 h01
M  ZZC  51 h111
M  ZZC  52 h112
M  ZZC  53 h41
M  ZZC  54 h141
M  ZZC  55 h181
M  ZZC  56 h182
M  ZZC  57 h183
M  ZZC  58 h191
M  ZZC  59 h201
M  ZZC  60 h211
M  ZZC  61 h221
M  ZZC  62 h222
M  ZZC  63 h231
M  ZZC  64 h02
M  ZZC  65 h241
M  ZZC  66 h242
M  ZZC  67 h251
M  ZZC  68 h252
M  ZZC  69 h261
M  ZZC  70 h262
M  ZZM   1 11
M  ZZI   1 90
M  ZZM   2 22
M  ZZI   2 109
M  ZZM   3 3
M  ZZI   3 121
M  ZZM   4 7
M  ZZI   4 81
M  ZZM   5 10
M  ZZI   5 211
M  ZZM   6 1
M  ZZI   6 113
M  ZZM   7 1
M  ZZI   7 110
M  ZZM   8 1
M  ZZI   8 111
M  ZZM   9 1
M  ZZI   9 111
M  ZZM  10 1
M  ZZI  10 111
M  ZZM  11 3
M  ZZI  11 121
M  ZZM  12 7
M  ZZI  12 81
M  ZZM  13 10
M  ZZI  13 192
M  ZZM  14 1
M  ZZI  14 113
M  ZZM  15 3
M  ZZI  15 121
M  ZZM  16 7
M  ZZI  16 81
M  ZZM  17 10
M  ZZI  17 211
M  ZZM  18 1
M  ZZI  18 112
M  ZZM  19 37
M  ZZI  19 124
M  ZZM  20 37
M  ZZI  20 124
M  ZZM  21 6
M  ZZI  21 62
M  ZZM  22 37
M  ZZI  22 125
M  ZZM  23 37
M  ZZI  23 124
M  ZZM  24 63
M  ZZI  24 104
M  ZZM  25 64
M  ZZI  25 105
M  ZZM  26 1
M  ZZI  26 111
M  ZZM  27 66
M  ZZI  27 222
M  ZZM  28 63
M  ZZI  28 104
M  ZZM  29 44
M  ZZI  29 248
M  ZZM  30 37
M  ZZI  30 125
M  ZZM  31 37
M  ZZI  31 125
M  ZZM  32 1
M  ZZI  32 112
M  ZZM  33 1
M  ZZI  33 113
M  ZZM  34 6
M  ZZI  34 60
M  ZZM  35 1
M  ZZI  35 112
M  ZZM  36 22
M  ZZI  36 109
M  ZZM  37 22
M  ZZI  37 109
M  ZZM  38 28
M  ZZI  38 11
M  ZZM  39 5
M  ZZI  39 1
M  ZZM  40 5
M  ZZI  40 1
M  ZZM  41 5
M  ZZI  41 1
M  ZZM  42 5
M  ZZI  42 1
M  ZZM  43 5
M  ZZI  43 1
M  ZZM  44 5
M  ZZI  44 1
M  ZZM  45 5
M  ZZI  45 1
M  ZZM  46 5
M  ZZI  46 1
M  ZZM  47 5
M  ZZI  47 1
M  ZZM  48 5
M  ZZI  48 1
M  ZZM  49 5
M  ZZI  49 1
M  ZZM  50 28
M  ZZI  50 11
M  ZZM  51 5
M  ZZI  51 1
M  ZZM  52 5
M  ZZI  52 1
M  ZZM  53 29
M  ZZI  53 27
M  ZZM  54 5
M  ZZI  54 1
M  ZZM  55 5
M  ZZI  55 1
M  ZZM  56 5
M  ZZI  56 1
M  ZZM  57 5
M  ZZI  57 1
M  ZZM  58 5
M  ZZI  58 1
M  ZZM  59 5
M  ZZI  59 1
M  ZZM  60 5
M  ZZI  60 1
M  ZZM  61 5
M  ZZI  61 1
M  ZZM  62 5
M  ZZI  62 1
M  ZZM  63 5
M  ZZI  63 1
M  ZZM  64 21
M  ZZI  64 20
M  ZZM  65 5
M  ZZI  65 1
M  ZZM  66 5
M  ZZI  66 1
M  ZZM  67 5
M  ZZI  67 1
M  ZZM  68 5
M  ZZI  68 1
M  ZZM  69 5
M  ZZI  69 1
M  ZZM  70 5
M  ZZI  70 1
M  END
> <IX>
1

> <NAME>
VHL_5EU1_21.pdb

> <Score>
-3.808053

> <Natom>
70

> <Nflex>
9

> <Hbond>
-4.24299

> <Hphob>
-6.743534

> <VwInt>
-25.843053

> <Dsolv>
20.547063

> <SolEl>
18.563751

> <Eintl>
7.042599

> <RecConf>
ND

> <projPath>
VHL_maps/

> <NAME_>
VHL_5EU1_21.pdb

$$$$
