VHL_5G0I_4.pdb
  MOLSOFT 04032206393D

 65 67  0  0  1  0  0  0  0  0999 V2000
    0.5902    1.9803  -18.1079 C   0  0  0  0  0  0  0  0  0  0  0  0
    1.5956    0.8715  -17.9867 C   0  0  0  0  0  0  0  0  0  0  0  0
    1.2676   -0.2852  -17.7683 O   0  0  0  0  0  0  0  0  0  0  0  0
    2.8919    1.3006  -18.1814 N   0  0  0  0  0  0  0  0  0  0  0  0
    4.0369    0.3858  -18.1781 C   0  0  1  0  0  0  0  0  0  0  0  0
    4.4308   -0.0762  -19.6209 C   0  0  0  0  0  0  0  0  0  0  0  0
    3.2997   -0.9182  -20.2347 C   0  0  0  0  0  0  0  0  0  0  0  0
    4.6851    1.1071  -20.5610 C   0  0  0  0  0  0  0  0  0  0  0  0
    5.6981   -0.9445  -19.6150 C   0  0  0  0  0  0  0  0  0  0  0  0
    5.1539    1.1267  -17.4143 C   0  0  0  0  0  0  0  0  0  0  0  0
    5.3665    2.3157  -17.6183 O   0  0  0  0  0  0  0  0  0  0  0  0
    5.9087    0.3999  -16.4874 N   0  0  0  0  0  0  0  0  0  0  0  0
    5.7553   -0.9951  -16.0743 C   0  0  2  0  0  0  0  0  0  0  0  0
    4.5418   -1.2174  -15.1687 C   0  0  0  0  0  0  0  0  0  0  0  0
    4.2119   -0.4168  -14.3060 O   0  0  0  0  0  0  0  0  0  0  0  0
    3.8890   -2.4176  -15.4032 N   0  0  0  0  0  0  0  0  0  0  0  0
    2.6212   -2.7474  -14.7783 C   0  0  0  0  0  0  0  0  0  0  0  0
    2.6937   -3.9223  -13.8352 C   0  0  0  0  0  0  0  0  0  0  0  0
    2.7466   -5.2273  -14.3130 C   0  0  0  0  0  0  0  0  0  0  0  0
    2.7318   -6.3064  -13.4417 C   0  0  0  0  0  0  0  0  0  0  0  0
    2.6791   -6.1225  -12.0612 C   0  0  0  0  0  0  0  0  0  0  0  0
    2.6153   -7.2663  -11.1470 C   0  0  0  0  0  0  0  0  0  0  0  0
    3.3044   -8.4757  -11.1340 C   0  0  0  0  0  0  0  0  0  0  0  0
    4.3467   -8.9227  -12.0791 C   0  0  0  0  0  0  0  0  0  0  0  0
    2.9712   -9.3417  -10.1120 N   0  0  0  0  0  0  0  0  0  0  0  0
    2.0098   -8.8162   -9.3879 C   0  0  0  0  0  0  0  0  0  0  0  0
    1.5013   -7.2498   -9.8317 S   0  0  0  0  0  0  0  0  0  0  0  0
    2.6642   -4.8118  -11.5870 C   0  0  0  0  0  0  0  0  0  0  0  0
    2.6662   -3.7329  -12.4576 C   0  0  0  0  0  0  0  0  0  0  0  0
    7.0282   -1.2992  -15.3013 C   0  0  0  0  0  0  0  0  0  0  0  0
    7.4727    0.0406  -14.7532 C   0  0  1  0  0  0  0  0  0  0  0  0
    8.8795    0.0490  -14.5039 O   0  0  0  0  0  0  0  0  0  0  0  0
    7.0822    0.9885  -15.8721 C   0  0  0  0  0  0  0  0  0  0  0  0
    0.8979    2.8231  -17.4875 H   0  0  0  0  0  0  0  0  0  0  0  0
   -0.3899    1.6341  -17.7686 H   0  0  0  0  0  0  0  0  0  0  0  0
    0.5194    2.3024  -19.1511 H   0  0  0  0  0  0  0  0  0  0  0  0
    3.0726    2.2991  -18.2770 H   0  0  0  0  0  0  0  0  0  0  0  0
    3.7357   -0.4909  -17.6015 H   0  0  0  0  0  0  0  0  0  0  0  0
    3.5908   -1.3320  -21.2058 H   0  0  0  0  0  0  0  0  0  0  0  0
    2.3941   -0.3281  -20.4053 H   0  0  0  0  0  0  0  0  0  0  0  0
    3.0341   -1.7624  -19.5902 H   0  0  0  0  0  0  0  0  0  0  0  0
    4.9355    0.7680  -21.5716 H   0  0  0  0  0  0  0  0  0  0  0  0
    5.5259    1.7105  -20.2123 H   0  0  0  0  0  0  0  0  0  0  0  0
    3.8032    1.7485  -20.6542 H   0  0  0  0  0  0  0  0  0  0  0  0
    5.9890   -1.2296  -20.6314 H   0  0  0  0  0  0  0  0  0  0  0  0
    5.5439   -1.8759  -19.0637 H   0  0  0  0  0  0  0  0  0  0  0  0
    6.5548   -0.4222  -19.1784 H   0  0  0  0  0  0  0  0  0  0  0  0
    5.6725   -1.6421  -16.9486 H   0  0  0  0  0  0  0  0  0  0  0  0
    4.2607   -3.0757  -16.0793 H   0  0  0  0  0  0  0  0  0  0  0  0
    2.2292   -1.8697  -14.2607 H   0  0  0  0  0  0  0  0  0  0  0  0
    1.9140   -2.9690  -15.5842 H   0  0  0  0  0  0  0  0  0  0  0  0
    2.7703   -5.4149  -15.3824 H   0  0  0  0  0  0  0  0  0  0  0  0
    2.7370   -7.3073  -13.8614 H   0  0  0  0  0  0  0  0  0  0  0  0
    3.9041   -9.4922  -12.9012 H   0  0  0  0  0  0  0  0  0  0  0  0
    5.0797   -9.5593  -11.5777 H   0  0  0  0  0  0  0  0  0  0  0  0
    4.8804   -8.0708  -12.4978 H   0  0  0  0  0  0  0  0  0  0  0  0
    1.5648   -9.3356   -8.5510 H   0  0  0  0  0  0  0  0  0  0  0  0
    2.6478   -4.6111  -10.5199 H   0  0  0  0  0  0  0  0  0  0  0  0
    2.6349   -2.7287  -12.0452 H   0  0  0  0  0  0  0  0  0  0  0  0
    6.8663   -2.0040  -14.4889 H   0  0  0  0  0  0  0  0  0  0  0  0
    7.7977   -1.7175  -15.9615 H   0  0  0  0  0  0  0  0  0  0  0  0
    6.9420    0.2846  -13.8260 H   0  0  0  0  0  0  0  0  0  0  0  0
    9.0951   -0.7191  -13.9415 H   0  0  0  0  0  0  0  0  0  0  0  0
    7.8639    1.0431  -16.6353 H   0  0  0  0  0  0  0  0  0  0  0  0
    6.8857    2.0073  -15.5320 H   0  0  0  0  0  0  0  0  0  0  0  0
  1 34  1  0  0  0  0
  1 35  1  0  0  0  0
  1 36  1  0  0  0  0
  1  2  1  0  0  0  0
  2  3  2  0  0  0  0
  2  4  1  0  0  0  0
  4 37  1  0  0  0  0
  5  4  1  0  0  0  0
  5 38  1  0  0  0  0
  5  6  1  0  0  0  0
  5 10  1  0  0  0  0
  6  7  1  0  0  0  0
  6  8  1  0  0  0  0
  6  9  1  0  0  0  0
  7 39  1  0  0  0  0
  7 40  1  0  0  0  0
  7 41  1  0  0  0  0
  8 42  1  0  0  0  0
  8 43  1  0  0  0  0
  8 44  1  0  0  0  0
  9 45  1  0  0  0  0
  9 46  1  0  0  0  0
  9 47  1  0  0  0  0
 10 11  2  0  0  0  0
 10 12  1  0  0  0  0
 12 33  1  0  0  0  0
 13 12  1  0  0  0  0
 13 30  1  0  0  0  0
 13 48  1  0  0  0  0
 13 14  1  0  0  0  0
 14 15  2  0  0  0  0
 14 16  1  0  0  0  0
 16 49  1  0  0  0  0
 16 17  1  0  0  0  0
 17 50  1  0  0  0  0
 17 51  1  0  0  0  0
 17 18  1  0  0  0  0
 18 19  1  0  0  0  0
 18 29  2  0  0  0  0
 19 52  1  0  0  0  0
 19 20  2  0  0  0  0
 20 53  1  0  0  0  0
 20 21  1  0  0  0  0
 21 28  2  0  0  0  0
 21 22  1  0  0  0  0
 22 23  2  0  0  0  0
 22 27  1  0  0  0  0
 23 24  1  0  0  0  0
 23 25  1  0  0  0  0
 24 54  1  0  0  0  0
 24 55  1  0  0  0  0
 24 56  1  0  0  0  0
 25 26  2  0  0  0  0
 26 57  1  0  0  0  0
 26 27  1  0  0  0  0
 28 58  1  0  0  0  0
 28 29  1  0  0  0  0
 29 59  1  0  0  0  0
 31 30  1  0  0  0  0
 30 60  1  0  0  0  0
 30 61  1  0  0  0  0
 31 33  1  0  0  0  0
 31 62  1  0  0  0  0
 31 32  1  0  0  0  0
 32 63  1  0  0  0  0
 33 64  1  0  0  0  0
 33 65  1  0  0  0  0
M  ZZC   1 c1
M  ZZC   2 c2
M  ZZC   3 o1
M  ZZC   4 n1
M  ZZC   5 c3
M  ZZC   6 c4
M  ZZC   7 c5
M  ZZC   8 c6
M  ZZC   9 c7
M  ZZC  10 c8
M  ZZC  11 o2
M  ZZC  12 n2
M  ZZC  13 c9
M  ZZC  14 c10
M  ZZC  15 o3
M  ZZC  16 n3
M  ZZC  17 c11
M  ZZC  18 c12
M  ZZC  19 c13
M  ZZC  20 c14
M  ZZC  21 c15
M  ZZC  22 c16
M  ZZC  23 c17
M  ZZC  24 c18
M  ZZC  25 n4
M  ZZC  26 c19
M  ZZC  27 s1
M  ZZC  28 c20
M  ZZC  29 c21
M  ZZC  30 c22
M  ZZC  31 c23
M  ZZC  32 o4
M  ZZC  33 c24
M  ZZC  34 h11
M  ZZC  35 h12
M  ZZC  36 h13
M  ZZC  37 h01
M  ZZC  38 h31
M  ZZC  39 h51
M  ZZC  40 h52
M  ZZC  41 h53
M  ZZC  42 h61
M  ZZC  43 h62
M  ZZC  44 h63
M  ZZC  45 h71
M  ZZC  46 h72
M  ZZC  47 h73
M  ZZC  48 h91
M  ZZC  49 h02
M  ZZC  50 h111
M  ZZC  51 h112
M  ZZC  52 h131
M  ZZC  53 h141
M  ZZC  54 h181
M  ZZC  55 h182
M  ZZC  56 h183
M  ZZC  57 h191
M  ZZC  58 h201
M  ZZC  59 h211
M  ZZC  60 h221
M  ZZC  61 h222
M  ZZC  62 h231
M  ZZC  63 h41
M  ZZC  64 h241
M  ZZC  65 h242
M  ZZM   1 1
M  ZZI   1 111
M  ZZM   2 3
M  ZZI   2 121
M  ZZM   3 7
M  ZZI   3 81
M  ZZM   4 10
M  ZZI   4 211
M  ZZM   5 1
M  ZZI   5 113
M  ZZM   6 1
M  ZZI   6 110
M  ZZM   7 1
M  ZZI   7 111
M  ZZM   8 1
M  ZZI   8 111
M  ZZM   9 1
M  ZZI   9 111
M  ZZM  10 3
M  ZZI  10 121
M  ZZM  11 7
M  ZZI  11 81
M  ZZM  12 10
M  ZZI  12 192
M  ZZM  13 1
M  ZZI  13 113
M  ZZM  14 3
M  ZZI  14 121
M  ZZM  15 7
M  ZZI  15 81
M  ZZM  16 10
M  ZZI  16 211
M  ZZM  17 1
M  ZZI  17 112
M  ZZM  18 37
M  ZZI  18 124
M  ZZM  19 37
M  ZZI  19 125
M  ZZM  20 37
M  ZZI  20 125
M  ZZM  21 37
M  ZZI  21 124
M  ZZM  22 63
M  ZZI  22 104
M  ZZM  23 64
M  ZZI  23 105
M  ZZM  24 1
M  ZZI  24 111
M  ZZM  25 66
M  ZZI  25 222
M  ZZM  26 63
M  ZZI  26 104
M  ZZM  27 44
M  ZZI  27 248
M  ZZM  28 37
M  ZZI  28 125
M  ZZM  29 37
M  ZZI  29 125
M  ZZM  30 1
M  ZZI  30 112
M  ZZM  31 1
M  ZZI  31 113
M  ZZM  32 6
M  ZZI  32 60
M  ZZM  33 1
M  ZZI  33 112
M  ZZM  34 5
M  ZZI  34 1
M  ZZM  35 5
M  ZZI  35 1
M  ZZM  36 5
M  ZZI  36 1
M  ZZM  37 28
M  ZZI  37 11
M  ZZM  38 5
M  ZZI  38 1
M  ZZM  39 5
M  ZZI  39 1
M  ZZM  40 5
M  ZZI  40 1
M  ZZM  41 5
M  ZZI  41 1
M  ZZM  42 5
M  ZZI  42 1
M  ZZM  43 5
M  ZZI  43 1
M  ZZM  44 5
M  ZZI  44 1
M  ZZM  45 5
M  ZZI  45 1
M  ZZM  46 5
M  ZZI  46 1
M  ZZM  47 5
M  ZZI  47 1
M  ZZM  48 5
M  ZZI  48 1
M  ZZM  49 28
M  ZZI  49 11
M  ZZM  50 5
M  ZZI  50 1
M  ZZM  51 5
M  ZZI  51 1
M  ZZM  52 5
M  ZZI  52 1
M  ZZM  53 5
M  ZZI  53 1
M  ZZM  54 5
M  ZZI  54 1
M  ZZM  55 5
M  ZZI  55 1
M  ZZM  56 5
M  ZZI  56 1
M  ZZM  57 5
M  ZZI  57 1
M  ZZM  58 5
M  ZZI  58 1
M  ZZM  59 5
M  ZZI  59 1
M  ZZM  60 5
M  ZZI  60 1
M  ZZM  61 5
M  ZZI  61 1
M  ZZM  62 5
M  ZZI  62 1
M  ZZM  63 21
M  ZZI  63 20
M  ZZM  64 5
M  ZZI  64 1
M  ZZM  65 5
M  ZZI  65 1
M  END
> <IX>
1

> <NAME>
VHL_5G0I_4.pdb

> <Score>
-20.196288

> <Natom>
65

> <Nflex>
8

> <Hbond>
-7.519933

> <Hphob>
-6.327865

> <VwInt>
-22.646828

> <Dsolv>
15.293378

> <SolEl>
10.479757

> <Eintl>
4.214942

> <RecConf>
ND

> <projPath>
VHL_maps/

> <NAME_>
VHL_5G0I_4.pdb

$$$$
