VHL_3MXF_6.pdb
  MOLSOFT 04032206373D

 66 68  0  0  1  0  0  0  0  0999 V2000
   13.9678   -1.5292   -1.2731 C   0  0  0  0  0  0  0  0  0  0  0  0
   15.5294   -0.6832   -1.6645 S   0  0  0  0  0  0  0  0  0  0  0  0
   16.6440   -2.1032   -2.1043 C   0  0  0  0  0  0  0  0  0  0  0  0
   16.3191   -2.6142   -3.5416 C   0  0  2  0  0  0  0  0  0  0  0  0
   17.0379   -3.8341   -3.9292 N   0  0  0  0  0  0  0  0  0  0  0  0
   16.4336   -5.0724   -3.9166 C   0  0  0  0  0  0  0  0  0  0  0  0
   15.3403   -5.2951   -3.4211 O   0  0  0  0  0  0  0  0  0  0  0  0
   17.2493   -6.1308   -4.6110 C   0  0  0  0  0  0  0  0  0  0  0  0
   16.6706   -1.6253   -4.6695 C   0  0  0  0  0  0  0  0  0  0  0  0
   17.8392   -1.3758   -4.9412 O   0  0  0  0  0  0  0  0  0  0  0  0
   15.6166   -1.1023   -5.4169 N   0  0  0  0  0  0  0  0  0  0  0  0
   15.8697   -0.3419   -6.6307 C   0  0  2  0  0  0  0  0  0  0  0  0
   16.2050    1.1187   -6.3189 C   0  0  0  0  0  0  0  0  0  0  0  0
   15.5427    1.8038   -5.5513 O   0  0  0  0  0  0  0  0  0  0  0  0
   17.3000    1.5928   -7.0154 N   0  0  0  0  0  0  0  0  0  0  0  0
   17.7720    2.9570   -6.8487 C   0  0  0  0  0  0  0  0  0  0  0  0
   19.2192    3.1621   -7.2288 C   0  0  0  0  0  0  0  0  0  0  0  0
   20.1489    2.1293   -7.1736 C   0  0  0  0  0  0  0  0  0  0  0  0
   21.4736    2.3476   -7.4977 C   0  0  0  0  0  0  0  0  0  0  0  0
   21.9234    3.6051   -7.8698 C   0  0  0  0  0  0  0  0  0  0  0  0
   23.3262    3.8098   -8.1943 C   0  0  0  0  0  0  0  0  0  0  0  0
   24.3932    4.1785   -7.3874 C   0  0  0  0  0  0  0  0  0  0  0  0
   24.3428    4.5137   -5.9467 C   0  0  0  0  0  0  0  0  0  0  0  0
   25.6183    4.2207   -8.0223 N   0  0  0  0  0  0  0  0  0  0  0  0
   25.4705    3.9058   -9.2892 C   0  0  0  0  0  0  0  0  0  0  0  0
   23.8801    3.5574   -9.8006 S   0  0  0  0  0  0  0  0  0  0  0  0
   21.0072    4.6481   -7.9124 C   0  0  0  0  0  0  0  0  0  0  0  0
   19.6750    4.4278   -7.5932 C   0  0  0  0  0  0  0  0  0  0  0  0
   14.5752   -0.4579   -7.4176 C   0  0  0  0  0  0  0  0  0  0  0  0
   13.5015   -0.5848   -6.3470 C   0  0  1  0  0  0  0  0  0  0  0  0
   12.3787   -1.3251   -6.8246 O   0  0  0  0  0  0  0  0  0  0  0  0
   14.1985   -1.3536   -5.2373 C   0  0  0  0  0  0  0  0  0  0  0  0
   18.0687   -1.5430   -1.9823 C   0  0  0  0  0  0  0  0  0  0  0  0
   16.4921   -3.2284   -1.0654 C   0  0  0  0  0  0  0  0  0  0  0  0
   13.6617   -2.2063   -2.0735 H   0  0  0  0  0  0  0  0  0  0  0  0
   13.1820   -0.7804   -1.1472 H   0  0  0  0  0  0  0  0  0  0  0  0
   14.0534   -2.0800   -0.3338 H   0  0  0  0  0  0  0  0  0  0  0  0
   15.2581   -2.8665   -3.5877 H   0  0  0  0  0  0  0  0  0  0  0  0
   17.9842   -3.7550   -4.2930 H   0  0  0  0  0  0  0  0  0  0  0  0
   16.6991   -7.0736   -4.6424 H   0  0  0  0  0  0  0  0  0  0  0  0
   18.1934   -6.2873   -4.0872 H   0  0  0  0  0  0  0  0  0  0  0  0
   17.4547   -5.8186   -5.6395 H   0  0  0  0  0  0  0  0  0  0  0  0
   16.6989   -0.7977   -7.1845 H   0  0  0  0  0  0  0  0  0  0  0  0
   17.7965    0.9692   -7.6461 H   0  0  0  0  0  0  0  0  0  0  0  0
   17.1282    3.5841   -7.4750 H   0  0  0  0  0  0  0  0  0  0  0  0
   17.6239    3.2612   -5.8070 H   0  0  0  0  0  0  0  0  0  0  0  0
   19.8501    1.1278   -6.8838 H   0  0  0  0  0  0  0  0  0  0  0  0
   22.1580    1.5086   -7.4712 H   0  0  0  0  0  0  0  0  0  0  0  0
   25.3341    4.7816   -5.5696 H   0  0  0  0  0  0  0  0  0  0  0  0
   23.9855    3.6628   -5.3630 H   0  0  0  0  0  0  0  0  0  0  0  0
   23.6747    5.3609   -5.7676 H   0  0  0  0  0  0  0  0  0  0  0  0
   26.3029    3.8719   -9.9775 H   0  0  0  0  0  0  0  0  0  0  0  0
   21.3264    5.6462   -8.1979 H   0  0  0  0  0  0  0  0  0  0  0  0
   18.9831    5.2644   -7.6310 H   0  0  0  0  0  0  0  0  0  0  0  0
   14.3919    0.3878   -8.0889 H   0  0  0  0  0  0  0  0  0  0  0  0
   14.6006   -1.3654   -8.0300 H   0  0  0  0  0  0  0  0  0  0  0  0
   13.1625    0.3955   -5.9934 H   0  0  0  0  0  0  0  0  0  0  0  0
   11.9164   -0.7845   -7.4913 H   0  0  0  0  0  0  0  0  0  0  0  0
   14.0085   -2.4296   -5.3008 H   0  0  0  0  0  0  0  0  0  0  0  0
   13.8769   -1.0116   -4.2509 H   0  0  0  0  0  0  0  0  0  0  0  0
   18.8037   -2.2668   -2.3369 H   0  0  0  0  0  0  0  0  0  0  0  0
   18.3272   -1.3181   -0.9419 H   0  0  0  0  0  0  0  0  0  0  0  0
   18.2163   -0.6201   -2.5518 H   0  0  0  0  0  0  0  0  0  0  0  0
   17.2689   -3.9882   -1.1879 H   0  0  0  0  0  0  0  0  0  0  0  0
   15.5308   -3.7446   -1.1477 H   0  0  0  0  0  0  0  0  0  0  0  0
   16.5827   -2.8534   -0.0405 H   0  0  0  0  0  0  0  0  0  0  0  0
  1 35  1  0  0  0  0
  1 36  1  0  0  0  0
  1 37  1  0  0  0  0
  1  2  1  0  0  0  0
  2  3  1  0  0  0  0
  3 33  1  0  0  0  0
  3 34  1  0  0  0  0
  4  3  1  0  0  0  0
  4 38  1  0  0  0  0
  4  5  1  0  0  0  0
  4  9  1  0  0  0  0
  5 39  1  0  0  0  0
  5  6  1  0  0  0  0
  6  7  2  0  0  0  0
  6  8  1  0  0  0  0
  8 40  1  0  0  0  0
  8 41  1  0  0  0  0
  8 42  1  0  0  0  0
  9 10  2  0  0  0  0
  9 11  1  0  0  0  0
 11 32  1  0  0  0  0
 12 11  1  0  0  0  0
 12 29  1  0  0  0  0
 12 43  1  0  0  0  0
 12 13  1  0  0  0  0
 13 14  2  0  0  0  0
 13 15  1  0  0  0  0
 15 44  1  0  0  0  0
 15 16  1  0  0  0  0
 16 45  1  0  0  0  0
 16 46  1  0  0  0  0
 16 17  1  0  0  0  0
 17 18  1  0  0  0  0
 17 28  2  0  0  0  0
 18 47  1  0  0  0  0
 18 19  2  0  0  0  0
 19 48  1  0  0  0  0
 19 20  1  0  0  0  0
 20 27  2  0  0  0  0
 20 21  1  0  0  0  0
 21 22  2  0  0  0  0
 21 26  1  0  0  0  0
 22 23  1  0  0  0  0
 22 24  1  0  0  0  0
 23 49  1  0  0  0  0
 23 50  1  0  0  0  0
 23 51  1  0  0  0  0
 24 25  2  0  0  0  0
 25 52  1  0  0  0  0
 25 26  1  0  0  0  0
 27 53  1  0  0  0  0
 27 28  1  0  0  0  0
 28 54  1  0  0  0  0
 30 29  1  0  0  0  0
 29 55  1  0  0  0  0
 29 56  1  0  0  0  0
 30 32  1  0  0  0  0
 30 57  1  0  0  0  0
 30 31  1  0  0  0  0
 31 58  1  0  0  0  0
 32 59  1  0  0  0  0
 32 60  1  0  0  0  0
 33 61  1  0  0  0  0
 33 62  1  0  0  0  0
 33 63  1  0  0  0  0
 34 64  1  0  0  0  0
 34 65  1  0  0  0  0
 34 66  1  0  0  0  0
M  ZZC   1 c1
M  ZZC   2 s1
M  ZZC   3 c2
M  ZZC   4 c3
M  ZZC   5 n1
M  ZZC   6 c4
M  ZZC   7 o1
M  ZZC   8 c5
M  ZZC   9 c6
M  ZZC  10 o2
M  ZZC  11 n2
M  ZZC  12 c7
M  ZZC  13 c8
M  ZZC  14 o3
M  ZZC  15 n3
M  ZZC  16 c9
M  ZZC  17 c10
M  ZZC  18 c11
M  ZZC  19 c12
M  ZZC  20 c13
M  ZZC  21 c14
M  ZZC  22 c15
M  ZZC  23 c16
M  ZZC  24 n4
M  ZZC  25 c17
M  ZZC  26 s2
M  ZZC  27 c18
M  ZZC  28 c19
M  ZZC  29 c20
M  ZZC  30 c21
M  ZZC  31 o4
M  ZZC  32 c22
M  ZZC  33 c23
M  ZZC  34 c24
M  ZZC  35 h11
M  ZZC  36 h12
M  ZZC  37 h13
M  ZZC  38 h31
M  ZZC  39 h01
M  ZZC  40 h51
M  ZZC  41 h52
M  ZZC  42 h53
M  ZZC  43 h71
M  ZZC  44 h02
M  ZZC  45 h91
M  ZZC  46 h92
M  ZZC  47 h111
M  ZZC  48 h121
M  ZZC  49 h161
M  ZZC  50 h162
M  ZZC  51 h163
M  ZZC  52 h171
M  ZZC  53 h181
M  ZZC  54 h191
M  ZZC  55 h201
M  ZZC  56 h202
M  ZZC  57 h211
M  ZZC  58 h41
M  ZZC  59 h221
M  ZZC  60 h222
M  ZZC  61 h231
M  ZZC  62 h232
M  ZZC  63 h233
M  ZZC  64 h241
M  ZZC  65 h242
M  ZZC  66 h243
M  ZZM   1 1
M  ZZI   1 111
M  ZZM   2 15
M  ZZI   2 253
M  ZZM   3 1
M  ZZI   3 110
M  ZZM   4 1
M  ZZI   4 113
M  ZZM   5 10
M  ZZI   5 211
M  ZZM   6 3
M  ZZI   6 121
M  ZZM   7 7
M  ZZI   7 81
M  ZZM   8 1
M  ZZI   8 111
M  ZZM   9 3
M  ZZI   9 121
M  ZZM  10 7
M  ZZI  10 81
M  ZZM  11 10
M  ZZI  11 192
M  ZZM  12 1
M  ZZI  12 113
M  ZZM  13 3
M  ZZI  13 121
M  ZZM  14 7
M  ZZI  14 81
M  ZZM  15 10
M  ZZI  15 211
M  ZZM  16 1
M  ZZI  16 112
M  ZZM  17 37
M  ZZI  17 124
M  ZZM  18 37
M  ZZI  18 125
M  ZZM  19 37
M  ZZI  19 125
M  ZZM  20 37
M  ZZI  20 124
M  ZZM  21 63
M  ZZI  21 104
M  ZZM  22 64
M  ZZI  22 105
M  ZZM  23 1
M  ZZI  23 111
M  ZZM  24 66
M  ZZI  24 222
M  ZZM  25 63
M  ZZI  25 104
M  ZZM  26 44
M  ZZI  26 248
M  ZZM  27 37
M  ZZI  27 125
M  ZZM  28 37
M  ZZI  28 125
M  ZZM  29 1
M  ZZI  29 112
M  ZZM  30 1
M  ZZI  30 113
M  ZZM  31 6
M  ZZI  31 60
M  ZZM  32 1
M  ZZI  32 112
M  ZZM  33 1
M  ZZI  33 111
M  ZZM  34 1
M  ZZI  34 111
M  ZZM  35 5
M  ZZI  35 1
M  ZZM  36 5
M  ZZI  36 1
M  ZZM  37 5
M  ZZI  37 1
M  ZZM  38 5
M  ZZI  38 1
M  ZZM  39 28
M  ZZI  39 11
M  ZZM  40 5
M  ZZI  40 1
M  ZZM  41 5
M  ZZI  41 1
M  ZZM  42 5
M  ZZI  42 1
M  ZZM  43 5
M  ZZI  43 1
M  ZZM  44 28
M  ZZI  44 11
M  ZZM  45 5
M  ZZI  45 1
M  ZZM  46 5
M  ZZI  46 1
M  ZZM  47 5
M  ZZI  47 1
M  ZZM  48 5
M  ZZI  48 1
M  ZZM  49 5
M  ZZI  49 1
M  ZZM  50 5
M  ZZI  50 1
M  ZZM  51 5
M  ZZI  51 1
M  ZZM  52 5
M  ZZI  52 1
M  ZZM  53 5
M  ZZI  53 1
M  ZZM  54 5
M  ZZI  54 1
M  ZZM  55 5
M  ZZI  55 1
M  ZZM  56 5
M  ZZI  56 1
M  ZZM  57 5
M  ZZI  57 1
M  ZZM  58 21
M  ZZI  58 20
M  ZZM  59 5
M  ZZI  59 1
M  ZZM  60 5
M  ZZI  60 1
M  ZZM  61 5
M  ZZI  61 1
M  ZZM  62 5
M  ZZI  62 1
M  ZZM  63 5
M  ZZI  63 1
M  ZZM  64 5
M  ZZI  64 1
M  ZZM  65 5
M  ZZI  65 1
M  ZZM  66 5
M  ZZI  66 1
M  END
> <IX>
1

> <NAME>
VHL_3MXF_6.pdb

> <Score>
-16.704986

> <Natom>
66

> <Nflex>
9

> <Hbond>
-4.860617

> <Hphob>
-6.201658

> <VwInt>
-32.854663

> <Dsolv>
17.674816

> <SolEl>
17.624391

> <Eintl>
3.856566

> <RecConf>
ND

> <projPath>
VHL_maps/

> <NAME_>
VHL_3MXF_6.pdb

$$$$
