VHL_6UT0_5.pdb
  MOLSOFT 04032206433D

 65 67  0  0  1  0  0  0  0  0999 V2000
   18.1244   -6.6972   -5.1374 C   0  0  0  0  0  0  0  0  0  0  0  0
   16.9130   -5.8177   -4.9883 C   0  0  0  0  0  0  0  0  0  0  0  0
   15.8272   -6.1731   -5.4132 O   0  0  0  0  0  0  0  0  0  0  0  0
   17.1590   -4.6396   -4.3110 N   0  0  0  0  0  0  0  0  0  0  0  0
   16.1538   -3.5979   -4.0438 C   0  0  1  0  0  0  0  0  0  0  0  0
   15.8818   -3.4326   -2.5193 C   0  0  0  0  0  0  0  0  0  0  0  0
   15.4041   -4.7828   -1.9710 C   0  0  0  0  0  0  0  0  0  0  0  0
   17.1314   -2.9831   -1.7490 C   0  0  0  0  0  0  0  0  0  0  0  0
   14.7715   -2.4181   -2.2225 C   0  0  0  0  0  0  0  0  0  0  0  0
   16.6768   -2.3507   -4.7872 C   0  0  0  0  0  0  0  0  0  0  0  0
   17.8752   -2.0977   -4.8183 O   0  0  0  0  0  0  0  0  0  0  0  0
   15.7493   -1.5496   -5.4598 N   0  0  0  0  0  0  0  0  0  0  0  0
   16.1798   -0.6135   -6.4878 C   0  0  2  0  0  0  0  0  0  0  0  0
   16.5835    0.7513   -5.9206 C   0  0  0  0  0  0  0  0  0  0  0  0
   16.0338    1.2550   -4.9502 O   0  0  0  0  0  0  0  0  0  0  0  0
   17.5703    1.3829   -6.6577 N   0  0  0  0  0  0  0  0  0  0  0  0
   18.0236    2.7288   -6.3406 C   0  0  0  0  0  0  0  0  0  0  0  0
   19.4812    3.0194   -6.6263 C   0  0  0  0  0  0  0  0  0  0  0  0
   19.9911    4.2796   -6.3222 C   0  0  0  0  0  0  0  0  0  0  0  0
   21.3283    4.5900   -6.5213 C   0  0  0  0  0  0  0  0  0  0  0  0
   22.2048    3.6479   -7.0462 C   0  0  0  0  0  0  0  0  0  0  0  0
   23.6283    3.9220   -7.2098 C   0  0  0  0  0  0  0  0  0  0  0  0
   24.4448    3.8808   -8.3342 C   0  0  0  0  0  0  0  0  0  0  0  0
   24.0379    3.6068   -9.7300 C   0  0  0  0  0  0  0  0  0  0  0  0
   25.7830    4.1192   -8.0960 N   0  0  0  0  0  0  0  0  0  0  0  0
   25.9712    4.3599   -6.8187 C   0  0  0  0  0  0  0  0  0  0  0  0
   24.5787    4.3239   -5.8316 S   0  0  0  0  0  0  0  0  0  0  0  0
   21.6914    2.4038   -7.3803 C   0  0  0  0  0  0  0  0  0  0  0  0
   20.3629    2.0893   -7.1669 C   0  0  0  0  0  0  0  0  0  0  0  0
   14.9631   -0.4927   -7.3936 C   0  0  0  0  0  0  0  0  0  0  0  0
   13.7852   -0.6373   -6.4402 C   0  0  1  0  0  0  0  0  0  0  0  0
   12.6540   -1.2299   -7.0739 O   0  0  0  0  0  0  0  0  0  0  0  0
   14.3008   -1.5601   -5.3494 C   0  0  0  0  0  0  0  0  0  0  0  0
   19.0387   -6.1017   -5.2177 H   0  0  0  0  0  0  0  0  0  0  0  0
   18.0255   -7.3011   -6.0444 H   0  0  0  0  0  0  0  0  0  0  0  0
   18.1911   -7.3597   -4.2710 H   0  0  0  0  0  0  0  0  0  0  0  0
   18.1195   -4.4367   -4.0580 H   0  0  0  0  0  0  0  0  0  0  0  0
   15.2283   -3.9259   -4.5159 H   0  0  0  0  0  0  0  0  0  0  0  0
   15.1357   -4.7037   -0.9152 H   0  0  0  0  0  0  0  0  0  0  0  0
   16.1716   -5.5536   -2.0627 H   0  0  0  0  0  0  0  0  0  0  0  0
   14.5187   -5.1429   -2.5047 H   0  0  0  0  0  0  0  0  0  0  0  0
   16.9364   -2.9201   -0.6735 H   0  0  0  0  0  0  0  0  0  0  0  0
   17.4767   -1.9967   -2.0740 H   0  0  0  0  0  0  0  0  0  0  0  0
   17.9581   -3.6783   -1.8802 H   0  0  0  0  0  0  0  0  0  0  0  0
   15.0608   -1.4080   -2.5311 H   0  0  0  0  0  0  0  0  0  0  0  0
   14.5512   -2.3691   -1.1518 H   0  0  0  0  0  0  0  0  0  0  0  0
   13.8523   -2.6551   -2.7651 H   0  0  0  0  0  0  0  0  0  0  0  0
   17.0299   -1.0353   -7.0327 H   0  0  0  0  0  0  0  0  0  0  0  0
   17.9540    0.9087   -7.4687 H   0  0  0  0  0  0  0  0  0  0  0  0
   17.4004    3.4079   -6.9327 H   0  0  0  0  0  0  0  0  0  0  0  0
   17.8215    2.9259   -5.2824 H   0  0  0  0  0  0  0  0  0  0  0  0
   19.3388    5.0396   -5.9016 H   0  0  0  0  0  0  0  0  0  0  0  0
   21.6829    5.5809   -6.2533 H   0  0  0  0  0  0  0  0  0  0  0  0
   23.9186    2.5333   -9.8902 H   0  0  0  0  0  0  0  0  0  0  0  0
   24.7921    3.9664  -10.4357 H   0  0  0  0  0  0  0  0  0  0  0  0
   23.0960    4.1067   -9.9707 H   0  0  0  0  0  0  0  0  0  0  0  0
   26.9492    4.5699   -6.4094 H   0  0  0  0  0  0  0  0  0  0  0  0
   22.3374    1.6385   -7.7916 H   0  0  0  0  0  0  0  0  0  0  0  0
   20.0393    1.0867   -7.4143 H   0  0  0  0  0  0  0  0  0  0  0  0
   14.9233    0.4471   -7.9544 H   0  0  0  0  0  0  0  0  0  0  0  0
   14.9567   -1.3073   -8.1265 H   0  0  0  0  0  0  0  0  0  0  0  0
   13.4878    0.3313   -6.0221 H   0  0  0  0  0  0  0  0  0  0  0  0
   12.3496   -0.6304   -7.7785 H   0  0  0  0  0  0  0  0  0  0  0  0
   13.9063   -2.5750   -5.4154 H   0  0  0  0  0  0  0  0  0  0  0  0
   14.0153   -1.1531   -4.3796 H   0  0  0  0  0  0  0  0  0  0  0  0
  1 34  1  0  0  0  0
  1 35  1  0  0  0  0
  1 36  1  0  0  0  0
  1  2  1  0  0  0  0
  2  3  2  0  0  0  0
  2  4  1  0  0  0  0
  4 37  1  0  0  0  0
  5  4  1  0  0  0  0
  5 38  1  0  0  0  0
  5  6  1  0  0  0  0
  5 10  1  0  0  0  0
  6  7  1  0  0  0  0
  6  8  1  0  0  0  0
  6  9  1  0  0  0  0
  7 39  1  0  0  0  0
  7 40  1  0  0  0  0
  7 41  1  0  0  0  0
  8 42  1  0  0  0  0
  8 43  1  0  0  0  0
  8 44  1  0  0  0  0
  9 45  1  0  0  0  0
  9 46  1  0  0  0  0
  9 47  1  0  0  0  0
 10 11  2  0  0  0  0
 10 12  1  0  0  0  0
 12 33  1  0  0  0  0
 13 12  1  0  0  0  0
 13 30  1  0  0  0  0
 13 48  1  0  0  0  0
 13 14  1  0  0  0  0
 14 15  2  0  0  0  0
 14 16  1  0  0  0  0
 16 49  1  0  0  0  0
 16 17  1  0  0  0  0
 17 50  1  0  0  0  0
 17 51  1  0  0  0  0
 17 18  1  0  0  0  0
 18 19  1  0  0  0  0
 18 29  2  0  0  0  0
 19 52  1  0  0  0  0
 19 20  2  0  0  0  0
 20 53  1  0  0  0  0
 20 21  1  0  0  0  0
 21 28  2  0  0  0  0
 21 22  1  0  0  0  0
 22 23  2  0  0  0  0
 22 27  1  0  0  0  0
 23 24  1  0  0  0  0
 23 25  1  0  0  0  0
 24 54  1  0  0  0  0
 24 55  1  0  0  0  0
 24 56  1  0  0  0  0
 25 26  2  0  0  0  0
 26 57  1  0  0  0  0
 26 27  1  0  0  0  0
 28 58  1  0  0  0  0
 28 29  1  0  0  0  0
 29 59  1  0  0  0  0
 31 30  1  0  0  0  0
 30 60  1  0  0  0  0
 30 61  1  0  0  0  0
 31 33  1  0  0  0  0
 31 62  1  0  0  0  0
 31 32  1  0  0  0  0
 32 63  1  0  0  0  0
 33 64  1  0  0  0  0
 33 65  1  0  0  0  0
M  ZZC   1 c1
M  ZZC   2 c2
M  ZZC   3 o1
M  ZZC   4 n1
M  ZZC   5 c3
M  ZZC   6 c4
M  ZZC   7 c5
M  ZZC   8 c6
M  ZZC   9 c7
M  ZZC  10 c8
M  ZZC  11 o2
M  ZZC  12 n2
M  ZZC  13 c9
M  ZZC  14 c10
M  ZZC  15 o3
M  ZZC  16 n3
M  ZZC  17 c11
M  ZZC  18 c12
M  ZZC  19 c13
M  ZZC  20 c14
M  ZZC  21 c15
M  ZZC  22 c16
M  ZZC  23 c17
M  ZZC  24 c18
M  ZZC  25 n4
M  ZZC  26 c19
M  ZZC  27 s1
M  ZZC  28 c20
M  ZZC  29 c21
M  ZZC  30 c22
M  ZZC  31 c23
M  ZZC  32 o4
M  ZZC  33 c24
M  ZZC  34 h11
M  ZZC  35 h12
M  ZZC  36 h13
M  ZZC  37 h01
M  ZZC  38 h31
M  ZZC  39 h51
M  ZZC  40 h52
M  ZZC  41 h53
M  ZZC  42 h61
M  ZZC  43 h62
M  ZZC  44 h63
M  ZZC  45 h71
M  ZZC  46 h72
M  ZZC  47 h73
M  ZZC  48 h91
M  ZZC  49 h02
M  ZZC  50 h111
M  ZZC  51 h112
M  ZZC  52 h131
M  ZZC  53 h141
M  ZZC  54 h181
M  ZZC  55 h182
M  ZZC  56 h183
M  ZZC  57 h191
M  ZZC  58 h201
M  ZZC  59 h211
M  ZZC  60 h221
M  ZZC  61 h222
M  ZZC  62 h231
M  ZZC  63 h41
M  ZZC  64 h241
M  ZZC  65 h242
M  ZZM   1 1
M  ZZI   1 111
M  ZZM   2 3
M  ZZI   2 121
M  ZZM   3 7
M  ZZI   3 81
M  ZZM   4 10
M  ZZI   4 211
M  ZZM   5 1
M  ZZI   5 113
M  ZZM   6 1
M  ZZI   6 110
M  ZZM   7 1
M  ZZI   7 111
M  ZZM   8 1
M  ZZI   8 111
M  ZZM   9 1
M  ZZI   9 111
M  ZZM  10 3
M  ZZI  10 121
M  ZZM  11 7
M  ZZI  11 81
M  ZZM  12 10
M  ZZI  12 192
M  ZZM  13 1
M  ZZI  13 113
M  ZZM  14 3
M  ZZI  14 121
M  ZZM  15 7
M  ZZI  15 81
M  ZZM  16 10
M  ZZI  16 211
M  ZZM  17 1
M  ZZI  17 112
M  ZZM  18 37
M  ZZI  18 124
M  ZZM  19 37
M  ZZI  19 125
M  ZZM  20 37
M  ZZI  20 125
M  ZZM  21 37
M  ZZI  21 124
M  ZZM  22 63
M  ZZI  22 104
M  ZZM  23 64
M  ZZI  23 105
M  ZZM  24 1
M  ZZI  24 111
M  ZZM  25 66
M  ZZI  25 222
M  ZZM  26 63
M  ZZI  26 104
M  ZZM  27 44
M  ZZI  27 248
M  ZZM  28 37
M  ZZI  28 125
M  ZZM  29 37
M  ZZI  29 125
M  ZZM  30 1
M  ZZI  30 112
M  ZZM  31 1
M  ZZI  31 113
M  ZZM  32 6
M  ZZI  32 60
M  ZZM  33 1
M  ZZI  33 112
M  ZZM  34 5
M  ZZI  34 1
M  ZZM  35 5
M  ZZI  35 1
M  ZZM  36 5
M  ZZI  36 1
M  ZZM  37 28
M  ZZI  37 11
M  ZZM  38 5
M  ZZI  38 1
M  ZZM  39 5
M  ZZI  39 1
M  ZZM  40 5
M  ZZI  40 1
M  ZZM  41 5
M  ZZI  41 1
M  ZZM  42 5
M  ZZI  42 1
M  ZZM  43 5
M  ZZI  43 1
M  ZZM  44 5
M  ZZI  44 1
M  ZZM  45 5
M  ZZI  45 1
M  ZZM  46 5
M  ZZI  46 1
M  ZZM  47 5
M  ZZI  47 1
M  ZZM  48 5
M  ZZI  48 1
M  ZZM  49 28
M  ZZI  49 11
M  ZZM  50 5
M  ZZI  50 1
M  ZZM  51 5
M  ZZI  51 1
M  ZZM  52 5
M  ZZI  52 1
M  ZZM  53 5
M  ZZI  53 1
M  ZZM  54 5
M  ZZI  54 1
M  ZZM  55 5
M  ZZI  55 1
M  ZZM  56 5
M  ZZI  56 1
M  ZZM  57 5
M  ZZI  57 1
M  ZZM  58 5
M  ZZI  58 1
M  ZZM  59 5
M  ZZI  59 1
M  ZZM  60 5
M  ZZI  60 1
M  ZZM  61 5
M  ZZI  61 1
M  ZZM  62 5
M  ZZI  62 1
M  ZZM  63 21
M  ZZI  63 20
M  ZZM  64 5
M  ZZI  64 1
M  ZZM  65 5
M  ZZI  65 1
M  END
> <IX>
1

> <NAME>
VHL_6UT0_5.pdb

> <Score>
-11.159503

> <Natom>
65

> <Nflex>
8

> <Hbond>
-4.958123

> <Hphob>
-6.471228

> <VwInt>
-28.118679

> <Dsolv>
16.874116

> <SolEl>
16.692261

> <Eintl>
8.944117

> <RecConf>
ND

> <projPath>
VHL_maps/

> <NAME_>
VHL_6UT0_5.pdb

$$$$
