VHL_4CI3_29.pdb
  MOLSOFT 04032206393D

 70 73  0  0  1  0  0  0  0  0999 V2000
   17.7132   -6.9956   -3.4806 F   0  0  0  0  0  0  0  0  0  0  0  0
   17.3438   -6.1220   -4.4853 C   0  0  0  0  0  0  0  0  0  0  0  0
   16.5030   -4.9776   -4.0380 C   0  0  0  0  0  0  0  0  0  0  0  0
   15.3338   -5.1561   -3.7333 O   0  0  0  0  0  0  0  0  0  0  0  0
   17.1368   -3.7526   -3.9708 N   0  0  0  0  0  0  0  0  0  0  0  0
   16.3973   -2.5232   -3.6693 C   0  0  1  0  0  0  0  0  0  0  0  0
   16.6657   -1.9644   -2.2402 C   0  0  0  0  0  0  0  0  0  0  0  0
   16.4262   -3.0661   -1.1931 C   0  0  0  0  0  0  0  0  0  0  0  0
   15.6911   -0.8155   -1.9382 C   0  0  0  0  0  0  0  0  0  0  0  0
   18.0979   -1.4379   -2.0692 C   0  0  0  0  0  0  0  0  0  0  0  0
   16.7338   -1.5468   -4.8158 C   0  0  0  0  0  0  0  0  0  0  0  0
   17.8976   -1.3088   -5.1165 O   0  0  0  0  0  0  0  0  0  0  0  0
   15.6586   -0.9935   -5.5137 N   0  0  0  0  0  0  0  0  0  0  0  0
   15.8609   -0.1948   -6.7161 C   0  0  2  0  0  0  0  0  0  0  0  0
   16.1552    1.2728   -6.3784 C   0  0  0  0  0  0  0  0  0  0  0  0
   15.3623    1.9931   -5.7868 O   0  0  0  0  0  0  0  0  0  0  0  0
   17.4057    1.6923   -6.7877 N   0  0  0  0  0  0  0  0  0  0  0  0
   17.9092    3.0280   -6.5135 C   0  0  0  0  0  0  0  0  0  0  0  0
   19.3141    3.2708   -7.0211 C   0  0  0  0  0  0  0  0  0  0  0  0
   20.2720    2.2660   -7.0517 C   0  0  0  0  0  0  0  0  0  0  0  0
   19.9362    1.0053   -6.6143 O   0  0  0  0  0  0  0  0  0  0  0  0
   21.5599    2.4768   -7.4984 C   0  0  0  0  0  0  0  0  0  0  0  0
   21.9564    3.7374   -7.9065 C   0  0  0  0  0  0  0  0  0  0  0  0
   23.3329    3.9455   -8.3234 C   0  0  0  0  0  0  0  0  0  0  0  0
   24.4597    4.2513   -7.5738 C   0  0  0  0  0  0  0  0  0  0  0  0
   24.5122    4.5102   -6.1169 C   0  0  0  0  0  0  0  0  0  0  0  0
   25.6412    4.2904   -8.2866 N   0  0  0  0  0  0  0  0  0  0  0  0
   25.4015    4.0344   -9.5531 C   0  0  0  0  0  0  0  0  0  0  0  0
   23.7726    3.7408   -9.9701 S   0  0  0  0  0  0  0  0  0  0  0  0
   21.0221    4.7678   -7.8747 C   0  0  0  0  0  0  0  0  0  0  0  0
   19.7208    4.5372   -7.4402 C   0  0  0  0  0  0  0  0  0  0  0  0
   14.5474   -0.3370   -7.4675 C   0  0  0  0  0  0  0  0  0  0  0  0
   13.5015   -0.5089   -6.3763 C   0  0  1  0  0  0  0  0  0  0  0  0
   12.3907   -1.2791   -6.8368 O   0  0  0  0  0  0  0  0  0  0  0  0
   14.2481   -1.2664   -5.2922 C   0  0  0  0  0  0  0  0  0  0  0  0
   18.3113   -6.0172   -5.6399 C   0  0  0  0  0  0  0  0  0  0  0  0
   17.0495   -6.8133   -5.7865 C   0  0  0  0  0  0  0  0  0  0  0  0
   18.1220   -3.6870   -4.2083 H   0  0  0  0  0  0  0  0  0  0  0  0
   15.3388   -2.7844   -3.7200 H   0  0  0  0  0  0  0  0  0  0  0  0
   16.5166   -2.6764   -0.1739 H   0  0  0  0  0  0  0  0  0  0  0  0
   17.1497   -3.8816   -1.2849 H   0  0  0  0  0  0  0  0  0  0  0  0
   15.4240   -3.4978   -1.2862 H   0  0  0  0  0  0  0  0  0  0  0  0
   15.8163    0.0110   -2.6453 H   0  0  0  0  0  0  0  0  0  0  0  0
   15.8519   -0.4072   -0.9348 H   0  0  0  0  0  0  0  0  0  0  0  0
   14.6475   -1.1387   -2.0038 H   0  0  0  0  0  0  0  0  0  0  0  0
   18.2978   -1.1527   -1.0315 H   0  0  0  0  0  0  0  0  0  0  0  0
   18.2859   -0.5508   -2.6810 H   0  0  0  0  0  0  0  0  0  0  0  0
   18.8350   -2.1938   -2.3424 H   0  0  0  0  0  0  0  0  0  0  0  0
   16.6868   -0.6112   -7.3044 H   0  0  0  0  0  0  0  0  0  0  0  0
   18.0607    1.0052   -7.1552 H   0  0  0  0  0  0  0  0  0  0  0  0
   17.2093    3.7345   -6.9735 H   0  0  0  0  0  0  0  0  0  0  0  0
   17.8773    3.1871   -5.4302 H   0  0  0  0  0  0  0  0  0  0  0  0
   20.3879    0.3770   -7.2058 H   0  0  0  0  0  0  0  0  0  0  0  0
   22.2610    1.6511   -7.5188 H   0  0  0  0  0  0  0  0  0  0  0  0
   23.8992    5.3753   -5.8474 H   0  0  0  0  0  0  0  0  0  0  0  0
   25.5360    4.7164   -5.7953 H   0  0  0  0  0  0  0  0  0  0  0  0
   24.1435    3.6469   -5.5557 H   0  0  0  0  0  0  0  0  0  0  0  0
   26.1850    4.0103  -10.2970 H   0  0  0  0  0  0  0  0  0  0  0  0
   21.3050    5.7681   -8.1896 H   0  0  0  0  0  0  0  0  0  0  0  0
   19.0183    5.3657   -7.4278 H   0  0  0  0  0  0  0  0  0  0  0  0
   14.3224    0.5078   -8.1272 H   0  0  0  0  0  0  0  0  0  0  0  0
   14.5843   -1.2384   -8.0882 H   0  0  0  0  0  0  0  0  0  0  0  0
   13.1396    0.4559   -6.0041 H   0  0  0  0  0  0  0  0  0  0  0  0
   11.9233   -0.7637   -7.5197 H   0  0  0  0  0  0  0  0  0  0  0  0
   14.0702   -2.3448   -5.3560 H   0  0  0  0  0  0  0  0  0  0  0  0
   13.9533   -0.9333   -4.2933 H   0  0  0  0  0  0  0  0  0  0  0  0
   18.3863   -5.0824   -6.1815 H   0  0  0  0  0  0  0  0  0  0  0  0
   19.2461   -6.5571   -5.5577 H   0  0  0  0  0  0  0  0  0  0  0  0
   17.1254   -7.8931   -5.8032 H   0  0  0  0  0  0  0  0  0  0  0  0
   16.2557   -6.4144   -6.3964 H   0  0  0  0  0  0  0  0  0  0  0  0
  2  1  1  0  0  0  0
  2 36  1  0  0  0  0
  2  3  1  0  0  0  0
  2 37  1  0  0  0  0
  3  4  2  0  0  0  0
  3  5  1  0  0  0  0
  5 38  1  0  0  0  0
  6  5  1  0  0  0  0
  6 39  1  0  0  0  0
  6  7  1  0  0  0  0
  6 11  1  0  0  0  0
  7  8  1  0  0  0  0
  7  9  1  0  0  0  0
  7 10  1  0  0  0  0
  8 40  1  0  0  0  0
  8 41  1  0  0  0  0
  8 42  1  0  0  0  0
  9 43  1  0  0  0  0
  9 44  1  0  0  0  0
  9 45  1  0  0  0  0
 10 46  1  0  0  0  0
 10 47  1  0  0  0  0
 10 48  1  0  0  0  0
 11 12  2  0  0  0  0
 11 13  1  0  0  0  0
 13 35  1  0  0  0  0
 14 13  1  0  0  0  0
 14 32  1  0  0  0  0
 14 49  1  0  0  0  0
 14 15  1  0  0  0  0
 15 16  2  0  0  0  0
 15 17  1  0  0  0  0
 17 50  1  0  0  0  0
 17 18  1  0  0  0  0
 18 51  1  0  0  0  0
 18 52  1  0  0  0  0
 18 19  1  0  0  0  0
 19 20  2  0  0  0  0
 19 31  1  0  0  0  0
 20 21  1  0  0  0  0
 20 22  1  0  0  0  0
 21 53  1  0  0  0  0
 22 54  1  0  0  0  0
 22 23  2  0  0  0  0
 23 30  1  0  0  0  0
 23 24  1  0  0  0  0
 24 25  2  0  0  0  0
 24 29  1  0  0  0  0
 25 26  1  0  0  0  0
 25 27  1  0  0  0  0
 26 55  1  0  0  0  0
 26 56  1  0  0  0  0
 26 57  1  0  0  0  0
 27 28  2  0  0  0  0
 28 58  1  0  0  0  0
 28 29  1  0  0  0  0
 30 59  1  0  0  0  0
 30 31  2  0  0  0  0
 31 60  1  0  0  0  0
 33 32  1  0  0  0  0
 32 61  1  0  0  0  0
 32 62  1  0  0  0  0
 33 35  1  0  0  0  0
 33 63  1  0  0  0  0
 33 34  1  0  0  0  0
 34 64  1  0  0  0  0
 35 65  1  0  0  0  0
 35 66  1  0  0  0  0
 36 67  1  0  0  0  0
 36 68  1  0  0  0  0
 36 37  1  0  0  0  0
 37 69  1  0  0  0  0
 37 70  1  0  0  0  0
M  ZZC   1 f1
M  ZZC   2 c1
M  ZZC   3 c2
M  ZZC   4 o1
M  ZZC   5 n1
M  ZZC   6 c3
M  ZZC   7 c4
M  ZZC   8 c5
M  ZZC   9 c6
M  ZZC  10 c7
M  ZZC  11 c8
M  ZZC  12 o2
M  ZZC  13 n2
M  ZZC  14 c9
M  ZZC  15 c10
M  ZZC  16 o3
M  ZZC  17 n3
M  ZZC  18 c11
M  ZZC  19 c12
M  ZZC  20 c13
M  ZZC  21 o4
M  ZZC  22 c14
M  ZZC  23 c15
M  ZZC  24 c16
M  ZZC  25 c17
M  ZZC  26 c18
M  ZZC  27 n4
M  ZZC  28 c19
M  ZZC  29 s1
M  ZZC  30 c20
M  ZZC  31 c21
M  ZZC  32 c22
M  ZZC  33 c23
M  ZZC  34 o5
M  ZZC  35 c24
M  ZZC  36 c25
M  ZZC  37 c26
M  ZZC  38 h11
M  ZZC  39 h31
M  ZZC  40 h51
M  ZZC  41 h52
M  ZZC  42 h53
M  ZZC  43 h61
M  ZZC  44 h62
M  ZZC  45 h63
M  ZZC  46 h71
M  ZZC  47 h72
M  ZZC  48 h73
M  ZZC  49 h91
M  ZZC  50 h01
M  ZZC  51 h111
M  ZZC  52 h112
M  ZZC  53 h41
M  ZZC  54 h141
M  ZZC  55 h181
M  ZZC  56 h182
M  ZZC  57 h183
M  ZZC  58 h191
M  ZZC  59 h201
M  ZZC  60 h211
M  ZZC  61 h221
M  ZZC  62 h222
M  ZZC  63 h231
M  ZZC  64 h02
M  ZZC  65 h241
M  ZZC  66 h242
M  ZZC  67 h251
M  ZZC  68 h252
M  ZZC  69 h261
M  ZZC  70 h262
M  ZZM   1 11
M  ZZI   1 90
M  ZZM   2 22
M  ZZI   2 109
M  ZZM   3 3
M  ZZI   3 121
M  ZZM   4 7
M  ZZI   4 81
M  ZZM   5 10
M  ZZI   5 211
M  ZZM   6 1
M  ZZI   6 113
M  ZZM   7 1
M  ZZI   7 110
M  ZZM   8 1
M  ZZI   8 111
M  ZZM   9 1
M  ZZI   9 111
M  ZZM  10 1
M  ZZI  10 111
M  ZZM  11 3
M  ZZI  11 121
M  ZZM  12 7
M  ZZI  12 81
M  ZZM  13 10
M  ZZI  13 192
M  ZZM  14 1
M  ZZI  14 113
M  ZZM  15 3
M  ZZI  15 121
M  ZZM  16 7
M  ZZI  16 81
M  ZZM  17 10
M  ZZI  17 211
M  ZZM  18 1
M  ZZI  18 112
M  ZZM  19 37
M  ZZI  19 124
M  ZZM  20 37
M  ZZI  20 124
M  ZZM  21 6
M  ZZI  21 62
M  ZZM  22 37
M  ZZI  22 125
M  ZZM  23 37
M  ZZI  23 124
M  ZZM  24 63
M  ZZI  24 104
M  ZZM  25 64
M  ZZI  25 105
M  ZZM  26 1
M  ZZI  26 111
M  ZZM  27 66
M  ZZI  27 222
M  ZZM  28 63
M  ZZI  28 104
M  ZZM  29 44
M  ZZI  29 248
M  ZZM  30 37
M  ZZI  30 125
M  ZZM  31 37
M  ZZI  31 125
M  ZZM  32 1
M  ZZI  32 112
M  ZZM  33 1
M  ZZI  33 113
M  ZZM  34 6
M  ZZI  34 60
M  ZZM  35 1
M  ZZI  35 112
M  ZZM  36 22
M  ZZI  36 109
M  ZZM  37 22
M  ZZI  37 109
M  ZZM  38 28
M  ZZI  38 11
M  ZZM  39 5
M  ZZI  39 1
M  ZZM  40 5
M  ZZI  40 1
M  ZZM  41 5
M  ZZI  41 1
M  ZZM  42 5
M  ZZI  42 1
M  ZZM  43 5
M  ZZI  43 1
M  ZZM  44 5
M  ZZI  44 1
M  ZZM  45 5
M  ZZI  45 1
M  ZZM  46 5
M  ZZI  46 1
M  ZZM  47 5
M  ZZI  47 1
M  ZZM  48 5
M  ZZI  48 1
M  ZZM  49 5
M  ZZI  49 1
M  ZZM  50 28
M  ZZI  50 11
M  ZZM  51 5
M  ZZI  51 1
M  ZZM  52 5
M  ZZI  52 1
M  ZZM  53 29
M  ZZI  53 27
M  ZZM  54 5
M  ZZI  54 1
M  ZZM  55 5
M  ZZI  55 1
M  ZZM  56 5
M  ZZI  56 1
M  ZZM  57 5
M  ZZI  57 1
M  ZZM  58 5
M  ZZI  58 1
M  ZZM  59 5
M  ZZI  59 1
M  ZZM  60 5
M  ZZI  60 1
M  ZZM  61 5
M  ZZI  61 1
M  ZZM  62 5
M  ZZI  62 1
M  ZZM  63 5
M  ZZI  63 1
M  ZZM  64 21
M  ZZI  64 20
M  ZZM  65 5
M  ZZI  65 1
M  ZZM  66 5
M  ZZI  66 1
M  ZZM  67 5
M  ZZI  67 1
M  ZZM  68 5
M  ZZI  68 1
M  ZZM  69 5
M  ZZI  69 1
M  ZZM  70 5
M  ZZI  70 1
M  END
> <IX>
1

> <NAME>
VHL_4CI3_29.pdb

> <Score>
-18.423325

> <Natom>
70

> <Nflex>
9

> <Hbond>
-7.230049

> <Hphob>
-6.194964

> <VwInt>
-33.515623

> <Dsolv>
20.512365

> <SolEl>
17.268166

> <Eintl>
8.922809

> <RecConf>
ND

> <projPath>
VHL_maps/

> <NAME_>
VHL_4CI3_29.pdb

$$$$
