VHL_1ERR_30.pdb
  MOLSOFT 04032206363D

 61 62  0  0  1  0  0  0  0  0999 V2000
   15.8250   -6.1479   -5.3891 O   0  0  0  0  0  0  0  0  0  0  0  0
   16.9116   -5.7824   -4.9752 C   0  0  0  0  0  0  0  0  0  0  0  0
   17.1471   -4.5983   -4.3034 N   0  0  0  0  0  0  0  0  0  0  0  0
   16.1320   -3.5670   -4.0303 C   0  0  1  0  0  0  0  0  0  0  0  0
   15.8982   -3.3756   -2.5020 C   0  0  0  0  0  0  0  0  0  0  0  0
   17.1666   -2.9137   -1.7703 C   0  0  0  0  0  0  0  0  0  0  0  0
   15.4368   -4.7166   -1.9183 C   0  0  0  0  0  0  0  0  0  0  0  0
   14.7940   -2.3576   -2.1941 C   0  0  0  0  0  0  0  0  0  0  0  0
   16.6126   -2.3224   -4.8074 C   0  0  0  0  0  0  0  0  0  0  0  0
   17.8048   -2.0429   -4.8636 O   0  0  0  0  0  0  0  0  0  0  0  0
   15.6507   -1.5557   -5.4743 N   0  0  0  0  0  0  0  0  0  0  0  0
   16.0318   -0.6159   -6.5188 C   0  0  2  0  0  0  0  0  0  0  0  0
   16.3856    0.7556   -5.9380 C   0  0  0  0  0  0  0  0  0  0  0  0
   15.6589    1.3448   -5.1489 O   0  0  0  0  0  0  0  0  0  0  0  0
   17.5868    1.2646   -6.3989 N   0  0  0  0  0  0  0  0  0  0  0  0
   18.1163    2.5349   -5.9183 C   0  0  1  0  0  0  0  0  0  0  0  0
   18.5732    2.4253   -4.4603 C   0  0  0  0  0  0  0  0  0  0  0  0
   19.2566    3.0567   -6.7709 C   0  0  0  0  0  0  0  0  0  0  0  0
   19.2766    4.3903   -7.1765 C   0  0  0  0  0  0  0  0  0  0  0  0
   20.3552    4.9083   -7.8757 C   0  0  0  0  0  0  0  0  0  0  0  0
   21.4432    4.1042   -8.1745 C   0  0  0  0  0  0  0  0  0  0  0  0
   22.5683    4.6295   -8.8854 C   0  0  0  0  0  0  0  0  0  0  0  0
   23.5317    5.0484   -9.4664 C   0  0  0  0  0  0  0  0  0  0  0  0
   21.4331    2.7766   -7.7867 C   0  0  0  0  0  0  0  0  0  0  0  0
   20.3465    2.2571   -7.1091 C   0  0  0  0  0  0  0  0  0  0  0  0
   14.7916   -0.5353   -7.3943 C   0  0  0  0  0  0  0  0  0  0  0  0
   13.6378   -0.7041   -6.4160 C   0  0  1  0  0  0  0  0  0  0  0  0
   12.5160   -1.3403   -7.0216 O   0  0  0  0  0  0  0  0  0  0  0  0
   14.2052   -1.5971   -5.3258 C   0  0  0  0  0  0  0  0  0  0  0  0
   18.1355   -6.6404   -5.1434 C   0  0  0  0  0  0  0  0  0  0  0  0
   18.1072   -4.3810   -4.0641 H   0  0  0  0  0  0  0  0  0  0  0  0
   15.1999   -3.9190   -4.4721 H   0  0  0  0  0  0  0  0  0  0  0  0
   17.9866   -3.6176   -1.8997 H   0  0  0  0  0  0  0  0  0  0  0  0
   16.9947   -2.8237   -0.6928 H   0  0  0  0  0  0  0  0  0  0  0  0
   17.5100   -1.9377   -2.1267 H   0  0  0  0  0  0  0  0  0  0  0  0
   14.5466   -5.0941   -2.4316 H   0  0  0  0  0  0  0  0  0  0  0  0
   15.1832   -4.6165   -0.8602 H   0  0  0  0  0  0  0  0  0  0  0  0
   16.2087   -5.4835   -2.0049 H   0  0  0  0  0  0  0  0  0  0  0  0
   13.8496   -2.6365   -2.6711 H   0  0  0  0  0  0  0  0  0  0  0  0
   15.0724   -1.3498   -2.5145 H   0  0  0  0  0  0  0  0  0  0  0  0
   14.5962   -2.2963   -1.1188 H   0  0  0  0  0  0  0  0  0  0  0  0
   16.8840   -1.0114   -7.0815 H   0  0  0  0  0  0  0  0  0  0  0  0
   18.1312    0.7218   -7.0628 H   0  0  0  0  0  0  0  0  0  0  0  0
   17.2855    3.2486   -5.9622 H   0  0  0  0  0  0  0  0  0  0  0  0
   17.7424    2.1722   -3.7959 H   0  0  0  0  0  0  0  0  0  0  0  0
   19.0053    3.3661   -4.1048 H   0  0  0  0  0  0  0  0  0  0  0  0
   19.3282    1.6438   -4.3323 H   0  0  0  0  0  0  0  0  0  0  0  0
   18.4478    5.0494   -6.9350 H   0  0  0  0  0  0  0  0  0  0  0  0
   20.3444    5.9515   -8.1779 H   0  0  0  0  0  0  0  0  0  0  0  0
   24.3972    5.4139   -9.9678 H   0  0  0  0  0  0  0  0  0  0  0  0
   22.2742    2.1308   -8.0177 H   0  0  0  0  0  0  0  0  0  0  0  0
   20.3654    1.2103   -6.8332 H   0  0  0  0  0  0  0  0  0  0  0  0
   14.7157    0.3975   -7.9632 H   0  0  0  0  0  0  0  0  0  0  0  0
   14.7939   -1.3586   -8.1167 H   0  0  0  0  0  0  0  0  0  0  0  0
   13.3128    0.2579   -6.0039 H   0  0  0  0  0  0  0  0  0  0  0  0
   12.1545   -0.7411   -7.6997 H   0  0  0  0  0  0  0  0  0  0  0  0
   13.8313   -2.6212   -5.3641 H   0  0  0  0  0  0  0  0  0  0  0  0
   13.9370   -1.1795   -4.3556 H   0  0  0  0  0  0  0  0  0  0  0  0
   18.0352   -7.2430   -6.0511 H   0  0  0  0  0  0  0  0  0  0  0  0
   18.2255   -7.3052   -4.2809 H   0  0  0  0  0  0  0  0  0  0  0  0
   19.0385   -6.0293   -5.2334 H   0  0  0  0  0  0  0  0  0  0  0  0
  1  2  2  0  0  0  0
  2  3  1  0  0  0  0
  2 30  1  0  0  0  0
  4  3  1  0  0  0  0
  3 31  1  0  0  0  0
  4  5  1  0  0  0  0
  4 32  1  0  0  0  0
  4  9  1  0  0  0  0
  5  6  1  0  0  0  0
  5  7  1  0  0  0  0
  5  8  1  0  0  0  0
  6 33  1  0  0  0  0
  6 34  1  0  0  0  0
  6 35  1  0  0  0  0
  7 36  1  0  0  0  0
  7 37  1  0  0  0  0
  7 38  1  0  0  0  0
  8 39  1  0  0  0  0
  8 40  1  0  0  0  0
  8 41  1  0  0  0  0
  9 10  2  0  0  0  0
  9 11  1  0  0  0  0
 11 29  1  0  0  0  0
 12 11  1  0  0  0  0
 12 26  1  0  0  0  0
 12 42  1  0  0  0  0
 12 13  1  0  0  0  0
 13 14  2  0  0  0  0
 13 15  1  0  0  0  0
 15 43  1  0  0  0  0
 16 15  1  0  0  0  0
 16 44  1  0  0  0  0
 16 17  1  0  0  0  0
 16 18  1  0  0  0  0
 17 45  1  0  0  0  0
 17 46  1  0  0  0  0
 17 47  1  0  0  0  0
 18 19  1  0  0  0  0
 18 25  2  0  0  0  0
 19 48  1  0  0  0  0
 19 20  2  0  0  0  0
 20 49  1  0  0  0  0
 20 21  1  0  0  0  0
 21 22  1  0  0  0  0
 21 24  2  0  0  0  0
 22 23  3  0  0  0  0
 23 50  1  0  0  0  0
 24 51  1  0  0  0  0
 24 25  1  0  0  0  0
 25 52  1  0  0  0  0
 27 26  1  0  0  0  0
 26 53  1  0  0  0  0
 26 54  1  0  0  0  0
 27 29  1  0  0  0  0
 27 55  1  0  0  0  0
 27 28  1  0  0  0  0
 28 56  1  0  0  0  0
 29 57  1  0  0  0  0
 29 58  1  0  0  0  0
 30 59  1  0  0  0  0
 30 60  1  0  0  0  0
 30 61  1  0  0  0  0
M  ZZC   1 o1
M  ZZC   2 c1
M  ZZC   3 n1
M  ZZC   4 c2
M  ZZC   5 c3
M  ZZC   6 c4
M  ZZC   7 c5
M  ZZC   8 c6
M  ZZC   9 c7
M  ZZC  10 o2
M  ZZC  11 n2
M  ZZC  12 c8
M  ZZC  13 c9
M  ZZC  14 o3
M  ZZC  15 n3
M  ZZC  16 c10
M  ZZC  17 c11
M  ZZC  18 c12
M  ZZC  19 c13
M  ZZC  20 c14
M  ZZC  21 c15
M  ZZC  22 c16
M  ZZC  23 c17
M  ZZC  24 c18
M  ZZC  25 c19
M  ZZC  26 c20
M  ZZC  27 c21
M  ZZC  28 o4
M  ZZC  29 c22
M  ZZC  30 c23
M  ZZC  31 h11
M  ZZC  32 h21
M  ZZC  33 h41
M  ZZC  34 h42
M  ZZC  35 h43
M  ZZC  36 h51
M  ZZC  37 h52
M  ZZC  38 h53
M  ZZC  39 h61
M  ZZC  40 h62
M  ZZC  41 h63
M  ZZC  42 h81
M  ZZC  43 h31
M  ZZC  44 h101
M  ZZC  45 h111
M  ZZC  46 h112
M  ZZC  47 h113
M  ZZC  48 h131
M  ZZC  49 h141
M  ZZC  50 h171
M  ZZC  51 h181
M  ZZC  52 h191
M  ZZC  53 h201
M  ZZC  54 h202
M  ZZC  55 h211
M  ZZC  56 h01
M  ZZC  57 h221
M  ZZC  58 h222
M  ZZC  59 h231
M  ZZC  60 h232
M  ZZC  61 h233
M  ZZM   1 7
M  ZZI   1 81
M  ZZM   2 3
M  ZZI   2 121
M  ZZM   3 10
M  ZZI   3 211
M  ZZM   4 1
M  ZZI   4 113
M  ZZM   5 1
M  ZZI   5 110
M  ZZM   6 1
M  ZZI   6 111
M  ZZM   7 1
M  ZZI   7 111
M  ZZM   8 1
M  ZZI   8 111
M  ZZM   9 3
M  ZZI   9 121
M  ZZM  10 7
M  ZZI  10 81
M  ZZM  11 10
M  ZZI  11 192
M  ZZM  12 1
M  ZZI  12 113
M  ZZM  13 3
M  ZZI  13 121
M  ZZM  14 7
M  ZZI  14 81
M  ZZM  15 10
M  ZZI  15 211
M  ZZM  16 1
M  ZZI  16 113
M  ZZM  17 1
M  ZZI  17 111
M  ZZM  18 37
M  ZZI  18 124
M  ZZM  19 37
M  ZZI  19 125
M  ZZM  20 37
M  ZZI  20 125
M  ZZM  21 37
M  ZZI  21 124
M  ZZM  22 4
M  ZZI  22 130
M  ZZM  23 4
M  ZZI  23 130
M  ZZM  24 37
M  ZZI  24 125
M  ZZM  25 37
M  ZZI  25 125
M  ZZM  26 1
M  ZZI  26 112
M  ZZM  27 1
M  ZZI  27 113
M  ZZM  28 6
M  ZZI  28 60
M  ZZM  29 1
M  ZZI  29 112
M  ZZM  30 1
M  ZZI  30 111
M  ZZM  31 28
M  ZZI  31 11
M  ZZM  32 5
M  ZZI  32 1
M  ZZM  33 5
M  ZZI  33 1
M  ZZM  34 5
M  ZZI  34 1
M  ZZM  35 5
M  ZZI  35 1
M  ZZM  36 5
M  ZZI  36 1
M  ZZM  37 5
M  ZZI  37 1
M  ZZM  38 5
M  ZZI  38 1
M  ZZM  39 5
M  ZZI  39 1
M  ZZM  40 5
M  ZZI  40 1
M  ZZM  41 5
M  ZZI  41 1
M  ZZM  42 5
M  ZZI  42 1
M  ZZM  43 28
M  ZZI  43 11
M  ZZM  44 5
M  ZZI  44 1
M  ZZM  45 5
M  ZZI  45 1
M  ZZM  46 5
M  ZZI  46 1
M  ZZM  47 5
M  ZZI  47 1
M  ZZM  48 5
M  ZZI  48 1
M  ZZM  49 5
M  ZZI  49 1
M  ZZM  50 5
M  ZZI  50 1
M  ZZM  51 5
M  ZZI  51 1
M  ZZM  52 5
M  ZZI  52 1
M  ZZM  53 5
M  ZZI  53 1
M  ZZM  54 5
M  ZZI  54 1
M  ZZM  55 5
M  ZZI  55 1
M  ZZM  56 21
M  ZZI  56 20
M  ZZM  57 5
M  ZZI  57 1
M  ZZM  58 5
M  ZZI  58 1
M  ZZM  59 5
M  ZZI  59 1
M  ZZM  60 5
M  ZZI  60 1
M  ZZM  61 5
M  ZZI  61 1
M  END
> <IX>
1

> <NAME>
VHL_1ERR_30.pdb

> <Score>
-10.779264

> <Natom>
61

> <Nflex>
8

> <Hbond>
-5.048214

> <Hphob>
-6.650423

> <VwInt>
-24.164476

> <Dsolv>
16.580218

> <SolEl>
15.828347

> <Eintl>
4.885172

> <RecConf>
ND

> <projPath>
VHL_maps/

> <NAME_>
VHL_1ERR_30.pdb

$$$$
