VHL_4IM0_4.pdb
  MOLSOFT 04032206383D

 65 67  0  0  1  0  0  0  0  0999 V2000
   18.0601   -6.8656   -5.1371 C   0  0  0  0  0  0  0  0  0  0  0  0
   16.8600   -5.9698   -4.9977 C   0  0  0  0  0  0  0  0  0  0  0  0
   15.7811   -6.2952   -5.4621 O   0  0  0  0  0  0  0  0  0  0  0  0
   17.1095   -4.8150   -4.2837 N   0  0  0  0  0  0  0  0  0  0  0  0
   16.1200   -3.7551   -4.0272 C   0  0  1  0  0  0  0  0  0  0  0  0
   15.8648   -3.5517   -2.5052 C   0  0  0  0  0  0  0  0  0  0  0  0
   15.3688   -4.8830   -1.9357 C   0  0  0  0  0  0  0  0  0  0  0  0
   14.7731   -2.5168   -2.2119 C   0  0  0  0  0  0  0  0  0  0  0  0
   17.1258   -3.1067   -1.7512 C   0  0  0  0  0  0  0  0  0  0  0  0
   16.6646   -2.5366   -4.7927 C   0  0  0  0  0  0  0  0  0  0  0  0
   17.8684   -2.3107   -4.8365 O   0  0  0  0  0  0  0  0  0  0  0  0
   15.7510   -1.7190   -5.4611 N   0  0  0  0  0  0  0  0  0  0  0  0
   16.2123   -0.7754   -6.4625 C   0  0  2  0  0  0  0  0  0  0  0  0
   16.7375    0.5021   -5.8073 C   0  0  0  0  0  0  0  0  0  0  0  0
   16.2798    0.9502   -4.7644 O   0  0  0  0  0  0  0  0  0  0  0  0
   17.7424    1.1125   -6.5346 N   0  0  0  0  0  0  0  0  0  0  0  0
   18.3976    2.3253   -6.0901 C   0  0  0  0  0  0  0  0  0  0  0  0
   17.7330    3.5618   -6.6367 C   0  0  0  0  0  0  0  0  0  0  0  0
   18.3419    4.3271   -7.6257 C   0  0  0  0  0  0  0  0  0  0  0  0
   17.7223    5.4620   -8.1236 C   0  0  0  0  0  0  0  0  0  0  0  0
   16.4756    5.8616   -7.6475 C   0  0  0  0  0  0  0  0  0  0  0  0
   15.8092    7.0551   -8.1521 C   0  0  0  0  0  0  0  0  0  0  0  0
   14.5041    7.2451   -8.5890 C   0  0  0  0  0  0  0  0  0  0  0  0
   13.4360    6.2264   -8.7018 C   0  0  0  0  0  0  0  0  0  0  0  0
   14.1931    8.5376   -8.9487 N   0  0  0  0  0  0  0  0  0  0  0  0
   15.2538    9.3025   -8.8226 C   0  0  0  0  0  0  0  0  0  0  0  0
   16.6646    8.5467   -8.2387 S   0  0  0  0  0  0  0  0  0  0  0  0
   15.8705    5.0942   -6.6599 C   0  0  0  0  0  0  0  0  0  0  0  0
   16.4905    3.9658   -6.1612 C   0  0  0  0  0  0  0  0  0  0  0  0
   14.9903   -0.5234   -7.3317 C   0  0  0  0  0  0  0  0  0  0  0  0
   13.8165   -0.6788   -6.3760 C   0  0  1  0  0  0  0  0  0  0  0  0
   12.6653   -1.2099   -7.0290 O   0  0  0  0  0  0  0  0  0  0  0  0
   14.3064   -1.6623   -5.3263 C   0  0  0  0  0  0  0  0  0  0  0  0
   18.9609   -6.2489   -5.1810 H   0  0  0  0  0  0  0  0  0  0  0  0
   17.9896   -7.4819   -6.0386 H   0  0  0  0  0  0  0  0  0  0  0  0
   18.1210   -7.5297   -4.2699 H   0  0  0  0  0  0  0  0  0  0  0  0
   18.0708   -4.6290   -4.0185 H   0  0  0  0  0  0  0  0  0  0  0  0
   15.1842   -4.0713   -4.4870 H   0  0  0  0  0  0  0  0  0  0  0  0
   15.1183   -4.7840   -0.8782 H   0  0  0  0  0  0  0  0  0  0  0  0
   16.1206   -5.6681   -2.0336 H   0  0  0  0  0  0  0  0  0  0  0  0
   14.4690   -5.2322   -2.4525 H   0  0  0  0  0  0  0  0  0  0  0  0
   15.0831   -1.5096   -2.5029 H   0  0  0  0  0  0  0  0  0  0  0  0
   14.5451   -2.4706   -1.1418 H   0  0  0  0  0  0  0  0  0  0  0  0
   13.8377   -2.7671   -2.7213 H   0  0  0  0  0  0  0  0  0  0  0  0
   16.9399   -3.0243   -0.6755 H   0  0  0  0  0  0  0  0  0  0  0  0
   17.4808   -2.1299   -2.0941 H   0  0  0  0  0  0  0  0  0  0  0  0
   17.9424   -3.8132   -1.8775 H   0  0  0  0  0  0  0  0  0  0  0  0
   17.0168   -1.2297   -7.0473 H   0  0  0  0  0  0  0  0  0  0  0  0
   18.0873    0.6693   -7.3802 H   0  0  0  0  0  0  0  0  0  0  0  0
   18.4107    2.3590   -4.9951 H   0  0  0  0  0  0  0  0  0  0  0  0
   19.4390    2.2665   -6.4234 H   0  0  0  0  0  0  0  0  0  0  0  0
   19.3150    4.0453   -8.0172 H   0  0  0  0  0  0  0  0  0  0  0  0
   18.2253    6.0319   -8.9000 H   0  0  0  0  0  0  0  0  0  0  0  0
   12.6515    6.5443   -9.3950 H   0  0  0  0  0  0  0  0  0  0  0  0
   12.9638    6.0492   -7.7327 H   0  0  0  0  0  0  0  0  0  0  0  0
   13.8477    5.2771   -9.0530 H   0  0  0  0  0  0  0  0  0  0  0  0
   15.2456   10.3533   -9.0724 H   0  0  0  0  0  0  0  0  0  0  0  0
   14.9065    5.3800   -6.2490 H   0  0  0  0  0  0  0  0  0  0  0  0
   15.9894    3.4007   -5.3813 H   0  0  0  0  0  0  0  0  0  0  0  0
   14.9950    0.4575   -7.8186 H   0  0  0  0  0  0  0  0  0  0  0  0
   14.9327   -1.2773   -8.1248 H   0  0  0  0  0  0  0  0  0  0  0  0
   13.5487    0.2793   -5.9162 H   0  0  0  0  0  0  0  0  0  0  0  0
   12.3986   -0.5902   -7.7315 H   0  0  0  0  0  0  0  0  0  0  0  0
   13.8633   -2.6553   -5.4075 H   0  0  0  0  0  0  0  0  0  0  0  0
   14.0572   -1.2681   -4.3423 H   0  0  0  0  0  0  0  0  0  0  0  0
  1 34  1  0  0  0  0
  1 35  1  0  0  0  0
  1 36  1  0  0  0  0
  1  2  1  0  0  0  0
  2  3  2  0  0  0  0
  2  4  1  0  0  0  0
  4 37  1  0  0  0  0
  5  4  1  0  0  0  0
  5 38  1  0  0  0  0
  5  6  1  0  0  0  0
  5 10  1  0  0  0  0
  6  7  1  0  0  0  0
  6  8  1  0  0  0  0
  6  9  1  0  0  0  0
  7 39  1  0  0  0  0
  7 40  1  0  0  0  0
  7 41  1  0  0  0  0
  8 42  1  0  0  0  0
  8 43  1  0  0  0  0
  8 44  1  0  0  0  0
  9 45  1  0  0  0  0
  9 46  1  0  0  0  0
  9 47  1  0  0  0  0
 10 11  2  0  0  0  0
 10 12  1  0  0  0  0
 12 33  1  0  0  0  0
 13 12  1  0  0  0  0
 13 30  1  0  0  0  0
 13 48  1  0  0  0  0
 13 14  1  0  0  0  0
 14 15  2  0  0  0  0
 14 16  1  0  0  0  0
 16 49  1  0  0  0  0
 16 17  1  0  0  0  0
 17 50  1  0  0  0  0
 17 51  1  0  0  0  0
 17 18  1  0  0  0  0
 18 19  1  0  0  0  0
 18 29  2  0  0  0  0
 19 52  1  0  0  0  0
 19 20  2  0  0  0  0
 20 53  1  0  0  0  0
 20 21  1  0  0  0  0
 21 28  2  0  0  0  0
 21 22  1  0  0  0  0
 22 23  2  0  0  0  0
 22 27  1  0  0  0  0
 23 24  1  0  0  0  0
 23 25  1  0  0  0  0
 24 54  1  0  0  0  0
 24 55  1  0  0  0  0
 24 56  1  0  0  0  0
 25 26  2  0  0  0  0
 26 57  1  0  0  0  0
 26 27  1  0  0  0  0
 28 58  1  0  0  0  0
 28 29  1  0  0  0  0
 29 59  1  0  0  0  0
 31 30  1  0  0  0  0
 30 60  1  0  0  0  0
 30 61  1  0  0  0  0
 31 33  1  0  0  0  0
 31 62  1  0  0  0  0
 31 32  1  0  0  0  0
 32 63  1  0  0  0  0
 33 64  1  0  0  0  0
 33 65  1  0  0  0  0
M  ZZC   1 c1
M  ZZC   2 c2
M  ZZC   3 o1
M  ZZC   4 n1
M  ZZC   5 c3
M  ZZC   6 c4
M  ZZC   7 c5
M  ZZC   8 c6
M  ZZC   9 c7
M  ZZC  10 c8
M  ZZC  11 o2
M  ZZC  12 n2
M  ZZC  13 c9
M  ZZC  14 c10
M  ZZC  15 o3
M  ZZC  16 n3
M  ZZC  17 c11
M  ZZC  18 c12
M  ZZC  19 c13
M  ZZC  20 c14
M  ZZC  21 c15
M  ZZC  22 c16
M  ZZC  23 c17
M  ZZC  24 c18
M  ZZC  25 n4
M  ZZC  26 c19
M  ZZC  27 s1
M  ZZC  28 c20
M  ZZC  29 c21
M  ZZC  30 c22
M  ZZC  31 c23
M  ZZC  32 o4
M  ZZC  33 c24
M  ZZC  34 h11
M  ZZC  35 h12
M  ZZC  36 h13
M  ZZC  37 h01
M  ZZC  38 h31
M  ZZC  39 h51
M  ZZC  40 h52
M  ZZC  41 h53
M  ZZC  42 h61
M  ZZC  43 h62
M  ZZC  44 h63
M  ZZC  45 h71
M  ZZC  46 h72
M  ZZC  47 h73
M  ZZC  48 h91
M  ZZC  49 h02
M  ZZC  50 h111
M  ZZC  51 h112
M  ZZC  52 h131
M  ZZC  53 h141
M  ZZC  54 h181
M  ZZC  55 h182
M  ZZC  56 h183
M  ZZC  57 h191
M  ZZC  58 h201
M  ZZC  59 h211
M  ZZC  60 h221
M  ZZC  61 h222
M  ZZC  62 h231
M  ZZC  63 h41
M  ZZC  64 h241
M  ZZC  65 h242
M  ZZM   1 1
M  ZZI   1 111
M  ZZM   2 3
M  ZZI   2 121
M  ZZM   3 7
M  ZZI   3 81
M  ZZM   4 10
M  ZZI   4 211
M  ZZM   5 1
M  ZZI   5 113
M  ZZM   6 1
M  ZZI   6 110
M  ZZM   7 1
M  ZZI   7 111
M  ZZM   8 1
M  ZZI   8 111
M  ZZM   9 1
M  ZZI   9 111
M  ZZM  10 3
M  ZZI  10 121
M  ZZM  11 7
M  ZZI  11 81
M  ZZM  12 10
M  ZZI  12 192
M  ZZM  13 1
M  ZZI  13 113
M  ZZM  14 3
M  ZZI  14 121
M  ZZM  15 7
M  ZZI  15 81
M  ZZM  16 10
M  ZZI  16 211
M  ZZM  17 1
M  ZZI  17 112
M  ZZM  18 37
M  ZZI  18 124
M  ZZM  19 37
M  ZZI  19 125
M  ZZM  20 37
M  ZZI  20 125
M  ZZM  21 37
M  ZZI  21 124
M  ZZM  22 63
M  ZZI  22 104
M  ZZM  23 64
M  ZZI  23 105
M  ZZM  24 1
M  ZZI  24 111
M  ZZM  25 66
M  ZZI  25 222
M  ZZM  26 63
M  ZZI  26 104
M  ZZM  27 44
M  ZZI  27 248
M  ZZM  28 37
M  ZZI  28 125
M  ZZM  29 37
M  ZZI  29 125
M  ZZM  30 1
M  ZZI  30 112
M  ZZM  31 1
M  ZZI  31 113
M  ZZM  32 6
M  ZZI  32 60
M  ZZM  33 1
M  ZZI  33 112
M  ZZM  34 5
M  ZZI  34 1
M  ZZM  35 5
M  ZZI  35 1
M  ZZM  36 5
M  ZZI  36 1
M  ZZM  37 28
M  ZZI  37 11
M  ZZM  38 5
M  ZZI  38 1
M  ZZM  39 5
M  ZZI  39 1
M  ZZM  40 5
M  ZZI  40 1
M  ZZM  41 5
M  ZZI  41 1
M  ZZM  42 5
M  ZZI  42 1
M  ZZM  43 5
M  ZZI  43 1
M  ZZM  44 5
M  ZZI  44 1
M  ZZM  45 5
M  ZZI  45 1
M  ZZM  46 5
M  ZZI  46 1
M  ZZM  47 5
M  ZZI  47 1
M  ZZM  48 5
M  ZZI  48 1
M  ZZM  49 28
M  ZZI  49 11
M  ZZM  50 5
M  ZZI  50 1
M  ZZM  51 5
M  ZZI  51 1
M  ZZM  52 5
M  ZZI  52 1
M  ZZM  53 5
M  ZZI  53 1
M  ZZM  54 5
M  ZZI  54 1
M  ZZM  55 5
M  ZZI  55 1
M  ZZM  56 5
M  ZZI  56 1
M  ZZM  57 5
M  ZZI  57 1
M  ZZM  58 5
M  ZZI  58 1
M  ZZM  59 5
M  ZZI  59 1
M  ZZM  60 5
M  ZZI  60 1
M  ZZM  61 5
M  ZZI  61 1
M  ZZM  62 5
M  ZZI  62 1
M  ZZM  63 21
M  ZZI  63 20
M  ZZM  64 5
M  ZZI  64 1
M  ZZM  65 5
M  ZZI  65 1
M  END
> <IX>
1

> <NAME>
VHL_4IM0_4.pdb

> <Score>
-4.4753

> <Natom>
65

> <Nflex>
8

> <Hbond>
-5.128003

> <Hphob>
-6.392004

> <VwInt>
-27.509973

> <Dsolv>
22.607153

> <SolEl>
22.196911

> <Eintl>
6.476398

> <RecConf>
ND

> <projPath>
VHL_maps/

> <NAME_>
VHL_4IM0_4.pdb

$$$$
