VHL_5T8E_31.pdb
  MOLSOFT 04032206423D

 65 67  0  0  1  0  0  0  0  0999 V2000
   17.2991   -6.2417   -4.3779 C   0  0  0  0  0  0  0  0  0  0  0  0
   16.4614   -5.1422   -3.7766 C   0  0  0  0  0  0  0  0  0  0  0  0
   15.3707   -5.3591   -3.2715 O   0  0  0  0  0  0  0  0  0  0  0  0
   17.0264   -3.8899   -3.8884 N   0  0  0  0  0  0  0  0  0  0  0  0
   16.2784   -2.6695   -3.5719 C   0  0  1  0  0  0  0  0  0  0  0  0
   16.5453   -2.1031   -2.1428 C   0  0  0  0  0  0  0  0  0  0  0  0
   17.9825   -1.5907   -1.9690 C   0  0  0  0  0  0  0  0  0  0  0  0
   15.5793   -0.9423   -1.8593 C   0  0  0  0  0  0  0  0  0  0  0  0
   16.2924   -3.1867   -1.0806 C   0  0  0  0  0  0  0  0  0  0  0  0
   16.6437   -1.6968   -4.7121 C   0  0  0  0  0  0  0  0  0  0  0  0
   17.8145   -1.4642   -4.9897 O   0  0  0  0  0  0  0  0  0  0  0  0
   15.5876   -1.1428   -5.4366 N   0  0  0  0  0  0  0  0  0  0  0  0
   15.8272   -0.3631   -6.6393 C   0  0  2  0  0  0  0  0  0  0  0  0
   16.1717    1.0895   -6.3007 C   0  0  0  0  0  0  0  0  0  0  0  0
   15.4879    1.7772   -5.5543 O   0  0  0  0  0  0  0  0  0  0  0  0
   17.3145    1.5475   -6.9271 N   0  0  0  0  0  0  0  0  0  0  0  0
   17.7974    2.9019   -6.7178 C   0  0  0  0  0  0  0  0  0  0  0  0
   19.2255    3.1276   -7.1550 C   0  0  0  0  0  0  0  0  0  0  0  0
   20.1635    2.1020   -7.1466 C   0  0  0  0  0  0  0  0  0  0  0  0
   21.4768    2.3366   -7.4992 C   0  0  0  0  0  0  0  0  0  0  0  0
   21.9072    3.6039   -7.8580 C   0  0  0  0  0  0  0  0  0  0  0  0
   23.3027    3.8281   -8.1982 C   0  0  0  0  0  0  0  0  0  0  0  0
   24.3715    4.2142   -7.4020 C   0  0  0  0  0  0  0  0  0  0  0  0
   24.3315    4.5426   -5.9590 C   0  0  0  0  0  0  0  0  0  0  0  0
   25.5910    4.2685   -8.0470 N   0  0  0  0  0  0  0  0  0  0  0  0
   25.4354    3.9482   -9.3117 C   0  0  0  0  0  0  0  0  0  0  0  0
   23.8462    3.5746   -9.8072 S   0  0  0  0  0  0  0  0  0  0  0  0
   20.9814    4.6397   -7.8620 C   0  0  0  0  0  0  0  0  0  0  0  0
   19.6588    4.4019   -7.5153 C   0  0  0  0  0  0  0  0  0  0  0  0
   14.5177   -0.4485   -7.4044 C   0  0  0  0  0  0  0  0  0  0  0  0
   13.4583   -0.5902   -6.3213 C   0  0  1  0  0  0  0  0  0  0  0  0
   12.3282   -1.3194   -6.7988 O   0  0  0  0  0  0  0  0  0  0  0  0
   14.1690   -1.3770   -5.2319 C   0  0  0  0  0  0  0  0  0  0  0  0
   18.2994   -5.8933   -4.6506 H   0  0  0  0  0  0  0  0  0  0  0  0
   16.8011   -6.6167   -5.2772 H   0  0  0  0  0  0  0  0  0  0  0  0
   17.4040   -7.0541   -3.6551 H   0  0  0  0  0  0  0  0  0  0  0  0
   17.9684   -3.8010   -4.2605 H   0  0  0  0  0  0  0  0  0  0  0  0
   15.2211   -2.9381   -3.6344 H   0  0  0  0  0  0  0  0  0  0  0  0
   18.1877   -1.3160   -0.9295 H   0  0  0  0  0  0  0  0  0  0  0  0
   18.1776   -0.7002   -2.5733 H   0  0  0  0  0  0  0  0  0  0  0  0
   18.7103   -2.3515   -2.2544 H   0  0  0  0  0  0  0  0  0  0  0  0
   15.7212   -0.1196   -2.5677 H   0  0  0  0  0  0  0  0  0  0  0  0
   15.7325   -0.5317   -0.8557 H   0  0  0  0  0  0  0  0  0  0  0  0
   14.5331   -1.2547   -1.9332 H   0  0  0  0  0  0  0  0  0  0  0  0
   16.3842   -2.7808   -0.0680 H   0  0  0  0  0  0  0  0  0  0  0  0
   17.0080   -4.0106   -1.1561 H   0  0  0  0  0  0  0  0  0  0  0  0
   15.2838   -3.6044   -1.1648 H   0  0  0  0  0  0  0  0  0  0  0  0
   16.6441   -0.8102   -7.2178 H   0  0  0  0  0  0  0  0  0  0  0  0
   17.8317    0.9227   -7.5397 H   0  0  0  0  0  0  0  0  0  0  0  0
   17.1232    3.5597   -7.2775 H   0  0  0  0  0  0  0  0  0  0  0  0
   17.7006    3.1504   -5.6554 H   0  0  0  0  0  0  0  0  0  0  0  0
   19.8799    1.0937   -6.8670 H   0  0  0  0  0  0  0  0  0  0  0  0
   22.1689    1.5036   -7.5007 H   0  0  0  0  0  0  0  0  0  0  0  0
   25.3005    4.9140   -5.6132 H   0  0  0  0  0  0  0  0  0  0  0  0
   24.0863    3.6566   -5.3686 H   0  0  0  0  0  0  0  0  0  0  0  0
   23.5838    5.3138   -5.7529 H   0  0  0  0  0  0  0  0  0  0  0  0
   26.2613    3.9225  -10.0081 H   0  0  0  0  0  0  0  0  0  0  0  0
   21.2867    5.6448   -8.1377 H   0  0  0  0  0  0  0  0  0  0  0  0
   18.9609    5.2343   -7.5181 H   0  0  0  0  0  0  0  0  0  0  0  0
   14.3307    0.4155   -8.0511 H   0  0  0  0  0  0  0  0  0  0  0  0
   14.5255   -1.3394   -8.0404 H   0  0  0  0  0  0  0  0  0  0  0  0
   13.1266    0.3854   -5.9490 H   0  0  0  0  0  0  0  0  0  0  0  0
   11.8827   -0.7826   -7.4802 H   0  0  0  0  0  0  0  0  0  0  0  0
   13.9629   -2.4494   -5.3034 H   0  0  0  0  0  0  0  0  0  0  0  0
   13.8727   -1.0437   -4.2338 H   0  0  0  0  0  0  0  0  0  0  0  0
  1 34  1  0  0  0  0
  1 35  1  0  0  0  0
  1 36  1  0  0  0  0
  1  2  1  0  0  0  0
  2  3  2  0  0  0  0
  2  4  1  0  0  0  0
  4 37  1  0  0  0  0
  5  4  1  0  0  0  0
  5 38  1  0  0  0  0
  5  6  1  0  0  0  0
  5 10  1  0  0  0  0
  6  7  1  0  0  0  0
  6  8  1  0  0  0  0
  6  9  1  0  0  0  0
  7 39  1  0  0  0  0
  7 40  1  0  0  0  0
  7 41  1  0  0  0  0
  8 42  1  0  0  0  0
  8 43  1  0  0  0  0
  8 44  1  0  0  0  0
  9 45  1  0  0  0  0
  9 46  1  0  0  0  0
  9 47  1  0  0  0  0
 10 11  2  0  0  0  0
 10 12  1  0  0  0  0
 12 33  1  0  0  0  0
 13 12  1  0  0  0  0
 13 30  1  0  0  0  0
 13 48  1  0  0  0  0
 13 14  1  0  0  0  0
 14 15  2  0  0  0  0
 14 16  1  0  0  0  0
 16 49  1  0  0  0  0
 16 17  1  0  0  0  0
 17 50  1  0  0  0  0
 17 51  1  0  0  0  0
 17 18  1  0  0  0  0
 18 19  1  0  0  0  0
 18 29  2  0  0  0  0
 19 52  1  0  0  0  0
 19 20  2  0  0  0  0
 20 53  1  0  0  0  0
 20 21  1  0  0  0  0
 21 28  2  0  0  0  0
 21 22  1  0  0  0  0
 22 23  2  0  0  0  0
 22 27  1  0  0  0  0
 23 24  1  0  0  0  0
 23 25  1  0  0  0  0
 24 54  1  0  0  0  0
 24 55  1  0  0  0  0
 24 56  1  0  0  0  0
 25 26  2  0  0  0  0
 26 57  1  0  0  0  0
 26 27  1  0  0  0  0
 28 58  1  0  0  0  0
 28 29  1  0  0  0  0
 29 59  1  0  0  0  0
 31 30  1  0  0  0  0
 30 60  1  0  0  0  0
 30 61  1  0  0  0  0
 31 33  1  0  0  0  0
 31 62  1  0  0  0  0
 31 32  1  0  0  0  0
 32 63  1  0  0  0  0
 33 64  1  0  0  0  0
 33 65  1  0  0  0  0
M  ZZC   1 c1
M  ZZC   2 c2
M  ZZC   3 o1
M  ZZC   4 n1
M  ZZC   5 c3
M  ZZC   6 c4
M  ZZC   7 c5
M  ZZC   8 c6
M  ZZC   9 c7
M  ZZC  10 c8
M  ZZC  11 o2
M  ZZC  12 n2
M  ZZC  13 c9
M  ZZC  14 c10
M  ZZC  15 o3
M  ZZC  16 n3
M  ZZC  17 c11
M  ZZC  18 c12
M  ZZC  19 c13
M  ZZC  20 c14
M  ZZC  21 c15
M  ZZC  22 c16
M  ZZC  23 c17
M  ZZC  24 c18
M  ZZC  25 n4
M  ZZC  26 c19
M  ZZC  27 s1
M  ZZC  28 c20
M  ZZC  29 c21
M  ZZC  30 c22
M  ZZC  31 c23
M  ZZC  32 o4
M  ZZC  33 c24
M  ZZC  34 h11
M  ZZC  35 h12
M  ZZC  36 h13
M  ZZC  37 h01
M  ZZC  38 h31
M  ZZC  39 h51
M  ZZC  40 h52
M  ZZC  41 h53
M  ZZC  42 h61
M  ZZC  43 h62
M  ZZC  44 h63
M  ZZC  45 h71
M  ZZC  46 h72
M  ZZC  47 h73
M  ZZC  48 h91
M  ZZC  49 h02
M  ZZC  50 h111
M  ZZC  51 h112
M  ZZC  52 h131
M  ZZC  53 h141
M  ZZC  54 h181
M  ZZC  55 h182
M  ZZC  56 h183
M  ZZC  57 h191
M  ZZC  58 h201
M  ZZC  59 h211
M  ZZC  60 h221
M  ZZC  61 h222
M  ZZC  62 h231
M  ZZC  63 h41
M  ZZC  64 h241
M  ZZC  65 h242
M  ZZM   1 1
M  ZZI   1 111
M  ZZM   2 3
M  ZZI   2 121
M  ZZM   3 7
M  ZZI   3 81
M  ZZM   4 10
M  ZZI   4 211
M  ZZM   5 1
M  ZZI   5 113
M  ZZM   6 1
M  ZZI   6 110
M  ZZM   7 1
M  ZZI   7 111
M  ZZM   8 1
M  ZZI   8 111
M  ZZM   9 1
M  ZZI   9 111
M  ZZM  10 3
M  ZZI  10 121
M  ZZM  11 7
M  ZZI  11 81
M  ZZM  12 10
M  ZZI  12 192
M  ZZM  13 1
M  ZZI  13 113
M  ZZM  14 3
M  ZZI  14 121
M  ZZM  15 7
M  ZZI  15 81
M  ZZM  16 10
M  ZZI  16 211
M  ZZM  17 1
M  ZZI  17 112
M  ZZM  18 37
M  ZZI  18 124
M  ZZM  19 37
M  ZZI  19 125
M  ZZM  20 37
M  ZZI  20 125
M  ZZM  21 37
M  ZZI  21 124
M  ZZM  22 63
M  ZZI  22 104
M  ZZM  23 64
M  ZZI  23 105
M  ZZM  24 1
M  ZZI  24 111
M  ZZM  25 66
M  ZZI  25 222
M  ZZM  26 63
M  ZZI  26 104
M  ZZM  27 44
M  ZZI  27 248
M  ZZM  28 37
M  ZZI  28 125
M  ZZM  29 37
M  ZZI  29 125
M  ZZM  30 1
M  ZZI  30 112
M  ZZM  31 1
M  ZZI  31 113
M  ZZM  32 6
M  ZZI  32 60
M  ZZM  33 1
M  ZZI  33 112
M  ZZM  34 5
M  ZZI  34 1
M  ZZM  35 5
M  ZZI  35 1
M  ZZM  36 5
M  ZZI  36 1
M  ZZM  37 28
M  ZZI  37 11
M  ZZM  38 5
M  ZZI  38 1
M  ZZM  39 5
M  ZZI  39 1
M  ZZM  40 5
M  ZZI  40 1
M  ZZM  41 5
M  ZZI  41 1
M  ZZM  42 5
M  ZZI  42 1
M  ZZM  43 5
M  ZZI  43 1
M  ZZM  44 5
M  ZZI  44 1
M  ZZM  45 5
M  ZZI  45 1
M  ZZM  46 5
M  ZZI  46 1
M  ZZM  47 5
M  ZZI  47 1
M  ZZM  48 5
M  ZZI  48 1
M  ZZM  49 28
M  ZZI  49 11
M  ZZM  50 5
M  ZZI  50 1
M  ZZM  51 5
M  ZZI  51 1
M  ZZM  52 5
M  ZZI  52 1
M  ZZM  53 5
M  ZZI  53 1
M  ZZM  54 5
M  ZZI  54 1
M  ZZM  55 5
M  ZZI  55 1
M  ZZM  56 5
M  ZZI  56 1
M  ZZM  57 5
M  ZZI  57 1
M  ZZM  58 5
M  ZZI  58 1
M  ZZM  59 5
M  ZZI  59 1
M  ZZM  60 5
M  ZZI  60 1
M  ZZM  61 5
M  ZZI  61 1
M  ZZM  62 5
M  ZZI  62 1
M  ZZM  63 21
M  ZZI  63 20
M  ZZM  64 5
M  ZZI  64 1
M  ZZM  65 5
M  ZZI  65 1
M  END
> <IX>
1

> <NAME>
VHL_5T8E_31.pdb

> <Score>
-19.361551

> <Natom>
65

> <Nflex>
8

> <Hbond>
-6.250707

> <Hphob>
-6.287591

> <VwInt>
-32.147235

> <Dsolv>
17.565456

> <SolEl>
18.377912

> <Eintl>
4.515242

> <RecConf>
ND

> <projPath>
VHL_maps/

> <NAME_>
VHL_5T8E_31.pdb

$$$$
