VHL_2GQG_6.pdb
  MOLSOFT 04032206383D

 65 67  0  0  1  0  0  0  0  0999 V2000
   18.1128   -6.6428   -5.1273 C   0  0  0  0  0  0  0  0  0  0  0  0
   16.8973   -5.7714   -4.9672 C   0  0  0  0  0  0  0  0  0  0  0  0
   15.8122   -6.1263   -5.3940 O   0  0  0  0  0  0  0  0  0  0  0  0
   17.1405   -4.5993   -4.2781 N   0  0  0  0  0  0  0  0  0  0  0  0
   16.1333   -3.5593   -4.0095 C   0  0  1  0  0  0  0  0  0  0  0  0
   15.8976   -3.3602   -2.4825 C   0  0  0  0  0  0  0  0  0  0  0  0
   14.7940   -2.3389   -2.1831 C   0  0  0  0  0  0  0  0  0  0  0  0
   15.4336   -4.6971   -1.8921 C   0  0  0  0  0  0  0  0  0  0  0  0
   17.1651   -2.8963   -1.7504 C   0  0  0  0  0  0  0  0  0  0  0  0
   16.6254   -2.3220   -4.7901 C   0  0  0  0  0  0  0  0  0  0  0  0
   17.8199   -2.0534   -4.8474 O   0  0  0  0  0  0  0  0  0  0  0  0
   15.6714   -1.5523   -5.4638 N   0  0  0  0  0  0  0  0  0  0  0  0
   16.0632   -0.6410   -6.5292 C   0  0  2  0  0  0  0  0  0  0  0  0
   16.4454    0.7512   -6.0193 C   0  0  0  0  0  0  0  0  0  0  0  0
   15.9188    1.2729   -5.0458 O   0  0  0  0  0  0  0  0  0  0  0  0
   17.3841    1.3827   -6.8141 N   0  0  0  0  0  0  0  0  0  0  0  0
   17.8362    2.7374   -6.5428 C   0  0  0  0  0  0  0  0  0  0  0  0
   19.2452    3.0178   -7.0087 C   0  0  0  0  0  0  0  0  0  0  0  0
   20.1876    2.0045   -7.1292 C   0  0  0  0  0  0  0  0  0  0  0  0
   21.4872    2.2807   -7.5002 C   0  0  0  0  0  0  0  0  0  0  0  0
   21.8999    3.5785   -7.7556 C   0  0  0  0  0  0  0  0  0  0  0  0
   23.2842    3.8392   -8.1163 C   0  0  0  0  0  0  0  0  0  0  0  0
   24.3535    4.2570   -7.3370 C   0  0  0  0  0  0  0  0  0  0  0  0
   24.3253    4.5858   -5.8939 C   0  0  0  0  0  0  0  0  0  0  0  0
   25.5620    4.3387   -7.9996 N   0  0  0  0  0  0  0  0  0  0  0  0
   25.3979    4.0084   -9.2608 C   0  0  0  0  0  0  0  0  0  0  0  0
   23.8114    3.5925   -9.7326 S   0  0  0  0  0  0  0  0  0  0  0  0
   20.9687    4.6022   -7.6334 C   0  0  0  0  0  0  0  0  0  0  0  0
   19.6598    4.3234   -7.2640 C   0  0  0  0  0  0  0  0  0  0  0  0
   14.8255   -0.5701   -7.4095 C   0  0  0  0  0  0  0  0  0  0  0  0
   13.6737   -0.6911   -6.4228 C   0  0  1  0  0  0  0  0  0  0  0  0
   12.5316   -1.3067   -7.0122 O   0  0  0  0  0  0  0  0  0  0  0  0
   14.2254   -1.5816   -5.3226 C   0  0  0  0  0  0  0  0  0  0  0  0
   19.0058   -6.0383   -5.3143 H   0  0  0  0  0  0  0  0  0  0  0  0
   17.9687   -7.3156   -5.9782 H   0  0  0  0  0  0  0  0  0  0  0  0
   18.2482   -7.2382   -4.2218 H   0  0  0  0  0  0  0  0  0  0  0  0
   18.1015   -4.3960   -4.0277 H   0  0  0  0  0  0  0  0  0  0  0  0
   15.1994   -3.9056   -4.4528 H   0  0  0  0  0  0  0  0  0  0  0  0
   15.0756   -1.3329   -2.5060 H   0  0  0  0  0  0  0  0  0  0  0  0
   14.5915   -2.2734   -1.1089 H   0  0  0  0  0  0  0  0  0  0  0  0
   13.8512   -2.6174   -2.6636 H   0  0  0  0  0  0  0  0  0  0  0  0
   15.1798   -4.5912   -0.8345 H   0  0  0  0  0  0  0  0  0  0  0  0
   16.2043   -5.4654   -1.9758 H   0  0  0  0  0  0  0  0  0  0  0  0
   14.5436   -5.0760   -2.4047 H   0  0  0  0  0  0  0  0  0  0  0  0
   16.9918   -2.8024   -0.6735 H   0  0  0  0  0  0  0  0  0  0  0  0
   17.5090   -1.9214   -2.1095 H   0  0  0  0  0  0  0  0  0  0  0  0
   17.9852   -3.6006   -1.8770 H   0  0  0  0  0  0  0  0  0  0  0  0
   16.9106   -1.0635   -7.0791 H   0  0  0  0  0  0  0  0  0  0  0  0
   17.7788    0.8829   -7.6062 H   0  0  0  0  0  0  0  0  0  0  0  0
   17.1339    3.4027   -7.0569 H   0  0  0  0  0  0  0  0  0  0  0  0
   17.7635    2.9348   -5.4680 H   0  0  0  0  0  0  0  0  0  0  0  0
   19.9187    0.9735   -6.9324 H   0  0  0  0  0  0  0  0  0  0  0  0
   22.1852    1.4576   -7.5903 H   0  0  0  0  0  0  0  0  0  0  0  0
   25.2944    4.9658   -5.5577 H   0  0  0  0  0  0  0  0  0  0  0  0
   24.0939    3.6976   -5.3012 H   0  0  0  0  0  0  0  0  0  0  0  0
   23.5733    5.3509   -5.6809 H   0  0  0  0  0  0  0  0  0  0  0  0
   26.2151    4.0008   -9.9678 H   0  0  0  0  0  0  0  0  0  0  0  0
   21.2590    5.6312   -7.8240 H   0  0  0  0  0  0  0  0  0  0  0  0
   18.9568    5.1458   -7.1683 H   0  0  0  0  0  0  0  0  0  0  0  0
   14.7595    0.3451   -8.0073 H   0  0  0  0  0  0  0  0  0  0  0  0
   14.8138   -1.4154   -8.1061 H   0  0  0  0  0  0  0  0  0  0  0  0
   13.3812    0.2870   -6.0239 H   0  0  0  0  0  0  0  0  0  0  0  0
   12.1857   -0.7124   -7.7025 H   0  0  0  0  0  0  0  0  0  0  0  0
   13.8447   -2.6034   -5.3608 H   0  0  0  0  0  0  0  0  0  0  0  0
   13.9528   -1.1587   -4.3558 H   0  0  0  0  0  0  0  0  0  0  0  0
  1 34  1  0  0  0  0
  1 35  1  0  0  0  0
  1 36  1  0  0  0  0
  1  2  1  0  0  0  0
  2  3  2  0  0  0  0
  2  4  1  0  0  0  0
  4 37  1  0  0  0  0
  5  4  1  0  0  0  0
  5 38  1  0  0  0  0
  5  6  1  0  0  0  0
  5 10  1  0  0  0  0
  6  7  1  0  0  0  0
  6  8  1  0  0  0  0
  6  9  1  0  0  0  0
  7 39  1  0  0  0  0
  7 40  1  0  0  0  0
  7 41  1  0  0  0  0
  8 42  1  0  0  0  0
  8 43  1  0  0  0  0
  8 44  1  0  0  0  0
  9 45  1  0  0  0  0
  9 46  1  0  0  0  0
  9 47  1  0  0  0  0
 10 11  2  0  0  0  0
 10 12  1  0  0  0  0
 12 33  1  0  0  0  0
 13 12  1  0  0  0  0
 13 30  1  0  0  0  0
 13 48  1  0  0  0  0
 13 14  1  0  0  0  0
 14 15  2  0  0  0  0
 14 16  1  0  0  0  0
 16 49  1  0  0  0  0
 16 17  1  0  0  0  0
 17 50  1  0  0  0  0
 17 51  1  0  0  0  0
 17 18  1  0  0  0  0
 18 19  1  0  0  0  0
 18 29  2  0  0  0  0
 19 52  1  0  0  0  0
 19 20  2  0  0  0  0
 20 53  1  0  0  0  0
 20 21  1  0  0  0  0
 21 28  2  0  0  0  0
 21 22  1  0  0  0  0
 22 23  2  0  0  0  0
 22 27  1  0  0  0  0
 23 24  1  0  0  0  0
 23 25  1  0  0  0  0
 24 54  1  0  0  0  0
 24 55  1  0  0  0  0
 24 56  1  0  0  0  0
 25 26  2  0  0  0  0
 26 57  1  0  0  0  0
 26 27  1  0  0  0  0
 28 58  1  0  0  0  0
 28 29  1  0  0  0  0
 29 59  1  0  0  0  0
 31 30  1  0  0  0  0
 30 60  1  0  0  0  0
 30 61  1  0  0  0  0
 31 33  1  0  0  0  0
 31 62  1  0  0  0  0
 31 32  1  0  0  0  0
 32 63  1  0  0  0  0
 33 64  1  0  0  0  0
 33 65  1  0  0  0  0
M  ZZC   1 c1
M  ZZC   2 c2
M  ZZC   3 o1
M  ZZC   4 n1
M  ZZC   5 c3
M  ZZC   6 c4
M  ZZC   7 c5
M  ZZC   8 c6
M  ZZC   9 c7
M  ZZC  10 c8
M  ZZC  11 o2
M  ZZC  12 n2
M  ZZC  13 c9
M  ZZC  14 c10
M  ZZC  15 o3
M  ZZC  16 n3
M  ZZC  17 c11
M  ZZC  18 c12
M  ZZC  19 c13
M  ZZC  20 c14
M  ZZC  21 c15
M  ZZC  22 c16
M  ZZC  23 c17
M  ZZC  24 c18
M  ZZC  25 n4
M  ZZC  26 c19
M  ZZC  27 s1
M  ZZC  28 c20
M  ZZC  29 c21
M  ZZC  30 c22
M  ZZC  31 c23
M  ZZC  32 o4
M  ZZC  33 c24
M  ZZC  34 h11
M  ZZC  35 h12
M  ZZC  36 h13
M  ZZC  37 h01
M  ZZC  38 h31
M  ZZC  39 h51
M  ZZC  40 h52
M  ZZC  41 h53
M  ZZC  42 h61
M  ZZC  43 h62
M  ZZC  44 h63
M  ZZC  45 h71
M  ZZC  46 h72
M  ZZC  47 h73
M  ZZC  48 h91
M  ZZC  49 h02
M  ZZC  50 h111
M  ZZC  51 h112
M  ZZC  52 h131
M  ZZC  53 h141
M  ZZC  54 h181
M  ZZC  55 h182
M  ZZC  56 h183
M  ZZC  57 h191
M  ZZC  58 h201
M  ZZC  59 h211
M  ZZC  60 h221
M  ZZC  61 h222
M  ZZC  62 h231
M  ZZC  63 h41
M  ZZC  64 h241
M  ZZC  65 h242
M  ZZM   1 1
M  ZZI   1 111
M  ZZM   2 3
M  ZZI   2 121
M  ZZM   3 7
M  ZZI   3 81
M  ZZM   4 10
M  ZZI   4 211
M  ZZM   5 1
M  ZZI   5 113
M  ZZM   6 1
M  ZZI   6 110
M  ZZM   7 1
M  ZZI   7 111
M  ZZM   8 1
M  ZZI   8 111
M  ZZM   9 1
M  ZZI   9 111
M  ZZM  10 3
M  ZZI  10 121
M  ZZM  11 7
M  ZZI  11 81
M  ZZM  12 10
M  ZZI  12 192
M  ZZM  13 1
M  ZZI  13 113
M  ZZM  14 3
M  ZZI  14 121
M  ZZM  15 7
M  ZZI  15 81
M  ZZM  16 10
M  ZZI  16 211
M  ZZM  17 1
M  ZZI  17 112
M  ZZM  18 37
M  ZZI  18 124
M  ZZM  19 37
M  ZZI  19 125
M  ZZM  20 37
M  ZZI  20 125
M  ZZM  21 37
M  ZZI  21 124
M  ZZM  22 63
M  ZZI  22 104
M  ZZM  23 64
M  ZZI  23 105
M  ZZM  24 1
M  ZZI  24 111
M  ZZM  25 66
M  ZZI  25 222
M  ZZM  26 63
M  ZZI  26 104
M  ZZM  27 44
M  ZZI  27 248
M  ZZM  28 37
M  ZZI  28 125
M  ZZM  29 37
M  ZZI  29 125
M  ZZM  30 1
M  ZZI  30 112
M  ZZM  31 1
M  ZZI  31 113
M  ZZM  32 6
M  ZZI  32 60
M  ZZM  33 1
M  ZZI  33 112
M  ZZM  34 5
M  ZZI  34 1
M  ZZM  35 5
M  ZZI  35 1
M  ZZM  36 5
M  ZZI  36 1
M  ZZM  37 28
M  ZZI  37 11
M  ZZM  38 5
M  ZZI  38 1
M  ZZM  39 5
M  ZZI  39 1
M  ZZM  40 5
M  ZZI  40 1
M  ZZM  41 5
M  ZZI  41 1
M  ZZM  42 5
M  ZZI  42 1
M  ZZM  43 5
M  ZZI  43 1
M  ZZM  44 5
M  ZZI  44 1
M  ZZM  45 5
M  ZZI  45 1
M  ZZM  46 5
M  ZZI  46 1
M  ZZM  47 5
M  ZZI  47 1
M  ZZM  48 5
M  ZZI  48 1
M  ZZM  49 28
M  ZZI  49 11
M  ZZM  50 5
M  ZZI  50 1
M  ZZM  51 5
M  ZZI  51 1
M  ZZM  52 5
M  ZZI  52 1
M  ZZM  53 5
M  ZZI  53 1
M  ZZM  54 5
M  ZZI  54 1
M  ZZM  55 5
M  ZZI  55 1
M  ZZM  56 5
M  ZZI  56 1
M  ZZM  57 5
M  ZZI  57 1
M  ZZM  58 5
M  ZZI  58 1
M  ZZM  59 5
M  ZZI  59 1
M  ZZM  60 5
M  ZZI  60 1
M  ZZM  61 5
M  ZZI  61 1
M  ZZM  62 5
M  ZZI  62 1
M  ZZM  63 21
M  ZZI  63 20
M  ZZM  64 5
M  ZZI  64 1
M  ZZM  65 5
M  ZZI  65 1
M  END
> <IX>
1

> <NAME>
VHL_2GQG_6.pdb

> <Score>
-11.824898

> <Natom>
65

> <Nflex>
8

> <Hbond>
-4.96187

> <Hphob>
-6.480255

> <VwInt>
-28.094112

> <Dsolv>
16.770127

> <SolEl>
16.954565

> <Eintl>
7.661514

> <RecConf>
ND

> <projPath>
VHL_maps/

> <NAME_>
VHL_2GQG_6.pdb

$$$$
