VHL_4G5J_1.pdb
  MOLSOFT 04032206383D

 65 67  0  0  1  0  0  0  0  0999 V2000
   18.1087   -6.6535   -5.1128 C   0  0  0  0  0  0  0  0  0  0  0  0
   16.8969   -5.7759   -4.9585 C   0  0  0  0  0  0  0  0  0  0  0  0
   15.8115   -6.1291   -5.3858 O   0  0  0  0  0  0  0  0  0  0  0  0
   17.1416   -4.6014   -4.2743 N   0  0  0  0  0  0  0  0  0  0  0  0
   16.1351   -3.5605   -4.0081 C   0  0  1  0  0  0  0  0  0  0  0  0
   15.8988   -3.3597   -2.4815 C   0  0  0  0  0  0  0  0  0  0  0  0
   14.7947   -2.3385   -2.1838 C   0  0  0  0  0  0  0  0  0  0  0  0
   17.1658   -2.8941   -1.7498 C   0  0  0  0  0  0  0  0  0  0  0  0
   15.4352   -4.6957   -1.8893 C   0  0  0  0  0  0  0  0  0  0  0  0
   16.6278   -2.3244   -4.7899 C   0  0  0  0  0  0  0  0  0  0  0  0
   17.8225   -2.0562   -4.8470 O   0  0  0  0  0  0  0  0  0  0  0  0
   15.6746   -1.5545   -5.4642 N   0  0  0  0  0  0  0  0  0  0  0  0
   16.0669   -0.6436   -6.5292 C   0  0  2  0  0  0  0  0  0  0  0  0
   16.4488    0.7488   -6.0200 C   0  0  0  0  0  0  0  0  0  0  0  0
   15.9258    1.2685   -5.0435 O   0  0  0  0  0  0  0  0  0  0  0  0
   17.3813    1.3832   -6.8195 N   0  0  0  0  0  0  0  0  0  0  0  0
   17.8316    2.7389   -6.5500 C   0  0  0  0  0  0  0  0  0  0  0  0
   19.2419    3.0187   -7.0114 C   0  0  0  0  0  0  0  0  0  0  0  0
   19.6572    4.3239   -7.2675 C   0  0  0  0  0  0  0  0  0  0  0  0
   20.9668    4.6021   -7.6346 C   0  0  0  0  0  0  0  0  0  0  0  0
   21.8980    3.5781   -7.7539 C   0  0  0  0  0  0  0  0  0  0  0  0
   23.2828    3.8384   -8.1124 C   0  0  0  0  0  0  0  0  0  0  0  0
   24.3507    4.2573   -7.3318 C   0  0  0  0  0  0  0  0  0  0  0  0
   24.3199    4.5886   -5.8893 C   0  0  0  0  0  0  0  0  0  0  0  0
   25.5604    4.3375   -7.9923 N   0  0  0  0  0  0  0  0  0  0  0  0
   25.3985    4.0057   -9.2534 C   0  0  0  0  0  0  0  0  0  0  0  0
   23.8128    3.5892   -9.7275 S   0  0  0  0  0  0  0  0  0  0  0  0
   21.4848    2.2807   -7.4974 C   0  0  0  0  0  0  0  0  0  0  0  0
   20.1845    2.0051   -7.1284 C   0  0  0  0  0  0  0  0  0  0  0  0
   14.8305   -0.5734   -7.4113 C   0  0  0  0  0  0  0  0  0  0  0  0
   13.6776   -0.6943   -6.4259 C   0  0  1  0  0  0  0  0  0  0  0  0
   12.5366   -1.3118   -7.0156 O   0  0  0  0  0  0  0  0  0  0  0  0
   14.2285   -1.5824   -5.3232 C   0  0  0  0  0  0  0  0  0  0  0  0
   19.0175   -6.0545   -5.2257 H   0  0  0  0  0  0  0  0  0  0  0  0
   17.9950   -7.2775   -6.0043 H   0  0  0  0  0  0  0  0  0  0  0  0
   18.1966   -7.2972   -4.2344 H   0  0  0  0  0  0  0  0  0  0  0  0
   18.1025   -4.3977   -4.0236 H   0  0  0  0  0  0  0  0  0  0  0  0
   15.2012   -3.9071   -4.4514 H   0  0  0  0  0  0  0  0  0  0  0  0
   15.0765   -1.3326   -2.5067 H   0  0  0  0  0  0  0  0  0  0  0  0
   14.5907   -2.2725   -1.1099 H   0  0  0  0  0  0  0  0  0  0  0  0
   13.8527   -2.6172   -2.6658 H   0  0  0  0  0  0  0  0  0  0  0  0
   16.9916   -2.7975   -0.6732 H   0  0  0  0  0  0  0  0  0  0  0  0
   17.5100   -1.9200   -2.1108 H   0  0  0  0  0  0  0  0  0  0  0  0
   17.9859   -3.5990   -1.8736 H   0  0  0  0  0  0  0  0  0  0  0  0
   15.1817   -4.5882   -0.8317 H   0  0  0  0  0  0  0  0  0  0  0  0
   16.2059   -5.4640   -1.9720 H   0  0  0  0  0  0  0  0  0  0  0  0
   14.5450   -5.0753   -2.4009 H   0  0  0  0  0  0  0  0  0  0  0  0
   16.9150   -1.0661   -7.0781 H   0  0  0  0  0  0  0  0  0  0  0  0
   17.7746    0.8845   -7.6128 H   0  0  0  0  0  0  0  0  0  0  0  0
   17.1308    3.4023   -7.0687 H   0  0  0  0  0  0  0  0  0  0  0  0
   17.7548    2.9396   -5.4761 H   0  0  0  0  0  0  0  0  0  0  0  0
   18.9540    5.1465   -7.1744 H   0  0  0  0  0  0  0  0  0  0  0  0
   21.2577    5.6308   -7.8258 H   0  0  0  0  0  0  0  0  0  0  0  0
   25.2847    4.9810   -5.5550 H   0  0  0  0  0  0  0  0  0  0  0  0
   24.0999    3.6988   -5.2948 H   0  0  0  0  0  0  0  0  0  0  0  0
   23.5590    5.3449   -5.6767 H   0  0  0  0  0  0  0  0  0  0  0  0
   26.2169    3.9970   -9.9589 H   0  0  0  0  0  0  0  0  0  0  0  0
   22.1829    1.4574   -7.5852 H   0  0  0  0  0  0  0  0  0  0  0  0
   19.9151    0.9743   -6.9307 H   0  0  0  0  0  0  0  0  0  0  0  0
   14.7651    0.3413   -8.0099 H   0  0  0  0  0  0  0  0  0  0  0  0
   14.8198   -1.4192   -8.1073 H   0  0  0  0  0  0  0  0  0  0  0  0
   13.3835    0.2841   -6.0288 H   0  0  0  0  0  0  0  0  0  0  0  0
   12.1889   -0.7172   -7.7047 H   0  0  0  0  0  0  0  0  0  0  0  0
   13.8470   -2.6040   -5.3585 H   0  0  0  0  0  0  0  0  0  0  0  0
   13.9562   -1.1562   -4.3577 H   0  0  0  0  0  0  0  0  0  0  0  0
  1 34  1  0  0  0  0
  1 35  1  0  0  0  0
  1 36  1  0  0  0  0
  1  2  1  0  0  0  0
  2  3  2  0  0  0  0
  2  4  1  0  0  0  0
  4 37  1  0  0  0  0
  5  4  1  0  0  0  0
  5 38  1  0  0  0  0
  5  6  1  0  0  0  0
  5 10  1  0  0  0  0
  6  7  1  0  0  0  0
  6  8  1  0  0  0  0
  6  9  1  0  0  0  0
  7 39  1  0  0  0  0
  7 40  1  0  0  0  0
  7 41  1  0  0  0  0
  8 42  1  0  0  0  0
  8 43  1  0  0  0  0
  8 44  1  0  0  0  0
  9 45  1  0  0  0  0
  9 46  1  0  0  0  0
  9 47  1  0  0  0  0
 10 11  2  0  0  0  0
 10 12  1  0  0  0  0
 12 33  1  0  0  0  0
 13 12  1  0  0  0  0
 13 30  1  0  0  0  0
 13 48  1  0  0  0  0
 13 14  1  0  0  0  0
 14 15  2  0  0  0  0
 14 16  1  0  0  0  0
 16 49  1  0  0  0  0
 16 17  1  0  0  0  0
 17 50  1  0  0  0  0
 17 51  1  0  0  0  0
 17 18  1  0  0  0  0
 18 19  1  0  0  0  0
 18 29  2  0  0  0  0
 19 52  1  0  0  0  0
 19 20  2  0  0  0  0
 20 53  1  0  0  0  0
 20 21  1  0  0  0  0
 21 28  2  0  0  0  0
 21 22  1  0  0  0  0
 22 23  2  0  0  0  0
 22 27  1  0  0  0  0
 23 24  1  0  0  0  0
 23 25  1  0  0  0  0
 24 54  1  0  0  0  0
 24 55  1  0  0  0  0
 24 56  1  0  0  0  0
 25 26  2  0  0  0  0
 26 57  1  0  0  0  0
 26 27  1  0  0  0  0
 28 58  1  0  0  0  0
 28 29  1  0  0  0  0
 29 59  1  0  0  0  0
 31 30  1  0  0  0  0
 30 60  1  0  0  0  0
 30 61  1  0  0  0  0
 31 33  1  0  0  0  0
 31 62  1  0  0  0  0
 31 32  1  0  0  0  0
 32 63  1  0  0  0  0
 33 64  1  0  0  0  0
 33 65  1  0  0  0  0
M  ZZC   1 c1
M  ZZC   2 c2
M  ZZC   3 o1
M  ZZC   4 n1
M  ZZC   5 c3
M  ZZC   6 c4
M  ZZC   7 c5
M  ZZC   8 c6
M  ZZC   9 c7
M  ZZC  10 c8
M  ZZC  11 o2
M  ZZC  12 n2
M  ZZC  13 c9
M  ZZC  14 c10
M  ZZC  15 o3
M  ZZC  16 n3
M  ZZC  17 c11
M  ZZC  18 c12
M  ZZC  19 c13
M  ZZC  20 c14
M  ZZC  21 c15
M  ZZC  22 c16
M  ZZC  23 c17
M  ZZC  24 c18
M  ZZC  25 n4
M  ZZC  26 c19
M  ZZC  27 s1
M  ZZC  28 c20
M  ZZC  29 c21
M  ZZC  30 c22
M  ZZC  31 c23
M  ZZC  32 o4
M  ZZC  33 c24
M  ZZC  34 h11
M  ZZC  35 h12
M  ZZC  36 h13
M  ZZC  37 h01
M  ZZC  38 h31
M  ZZC  39 h51
M  ZZC  40 h52
M  ZZC  41 h53
M  ZZC  42 h61
M  ZZC  43 h62
M  ZZC  44 h63
M  ZZC  45 h71
M  ZZC  46 h72
M  ZZC  47 h73
M  ZZC  48 h91
M  ZZC  49 h02
M  ZZC  50 h111
M  ZZC  51 h112
M  ZZC  52 h131
M  ZZC  53 h141
M  ZZC  54 h181
M  ZZC  55 h182
M  ZZC  56 h183
M  ZZC  57 h191
M  ZZC  58 h201
M  ZZC  59 h211
M  ZZC  60 h221
M  ZZC  61 h222
M  ZZC  62 h231
M  ZZC  63 h41
M  ZZC  64 h241
M  ZZC  65 h242
M  ZZM   1 1
M  ZZI   1 111
M  ZZM   2 3
M  ZZI   2 121
M  ZZM   3 7
M  ZZI   3 81
M  ZZM   4 10
M  ZZI   4 211
M  ZZM   5 1
M  ZZI   5 113
M  ZZM   6 1
M  ZZI   6 110
M  ZZM   7 1
M  ZZI   7 111
M  ZZM   8 1
M  ZZI   8 111
M  ZZM   9 1
M  ZZI   9 111
M  ZZM  10 3
M  ZZI  10 121
M  ZZM  11 7
M  ZZI  11 81
M  ZZM  12 10
M  ZZI  12 192
M  ZZM  13 1
M  ZZI  13 113
M  ZZM  14 3
M  ZZI  14 121
M  ZZM  15 7
M  ZZI  15 81
M  ZZM  16 10
M  ZZI  16 211
M  ZZM  17 1
M  ZZI  17 112
M  ZZM  18 37
M  ZZI  18 124
M  ZZM  19 37
M  ZZI  19 125
M  ZZM  20 37
M  ZZI  20 125
M  ZZM  21 37
M  ZZI  21 124
M  ZZM  22 63
M  ZZI  22 104
M  ZZM  23 64
M  ZZI  23 105
M  ZZM  24 1
M  ZZI  24 111
M  ZZM  25 66
M  ZZI  25 222
M  ZZM  26 63
M  ZZI  26 104
M  ZZM  27 44
M  ZZI  27 248
M  ZZM  28 37
M  ZZI  28 125
M  ZZM  29 37
M  ZZI  29 125
M  ZZM  30 1
M  ZZI  30 112
M  ZZM  31 1
M  ZZI  31 113
M  ZZM  32 6
M  ZZI  32 60
M  ZZM  33 1
M  ZZI  33 112
M  ZZM  34 5
M  ZZI  34 1
M  ZZM  35 5
M  ZZI  35 1
M  ZZM  36 5
M  ZZI  36 1
M  ZZM  37 28
M  ZZI  37 11
M  ZZM  38 5
M  ZZI  38 1
M  ZZM  39 5
M  ZZI  39 1
M  ZZM  40 5
M  ZZI  40 1
M  ZZM  41 5
M  ZZI  41 1
M  ZZM  42 5
M  ZZI  42 1
M  ZZM  43 5
M  ZZI  43 1
M  ZZM  44 5
M  ZZI  44 1
M  ZZM  45 5
M  ZZI  45 1
M  ZZM  46 5
M  ZZI  46 1
M  ZZM  47 5
M  ZZI  47 1
M  ZZM  48 5
M  ZZI  48 1
M  ZZM  49 28
M  ZZI  49 11
M  ZZM  50 5
M  ZZI  50 1
M  ZZM  51 5
M  ZZI  51 1
M  ZZM  52 5
M  ZZI  52 1
M  ZZM  53 5
M  ZZI  53 1
M  ZZM  54 5
M  ZZI  54 1
M  ZZM  55 5
M  ZZI  55 1
M  ZZM  56 5
M  ZZI  56 1
M  ZZM  57 5
M  ZZI  57 1
M  ZZM  58 5
M  ZZI  58 1
M  ZZM  59 5
M  ZZI  59 1
M  ZZM  60 5
M  ZZI  60 1
M  ZZM  61 5
M  ZZI  61 1
M  ZZM  62 5
M  ZZI  62 1
M  ZZM  63 21
M  ZZI  63 20
M  ZZM  64 5
M  ZZI  64 1
M  ZZM  65 5
M  ZZI  65 1
M  END
> <IX>
1

> <NAME>
VHL_4G5J_1.pdb

> <Score>
-11.894159

> <Natom>
65

> <Nflex>
8

> <Hbond>
-4.960637

> <Hphob>
-6.550981

> <VwInt>
-28.057458

> <Dsolv>
16.922239

> <SolEl>
16.776643

> <Eintl>
7.564343

> <RecConf>
ND

> <projPath>
VHL_maps/

> <NAME_>
VHL_4G5J_1.pdb

$$$$
