VHL_5EHR_1.pdb
  MOLSOFT 04032206393D

 68 70  0  0  1  0  0  0  0  0999 V2000
   15.5580   -4.3798  -15.4600 C   0  0  0  0  0  0  0  0  0  0  0  0
   15.1438   -3.7963  -16.7801 C   0  0  0  0  0  0  0  0  0  0  0  0
   15.3261   -4.4004  -17.8264 O   0  0  0  0  0  0  0  0  0  0  0  0
   14.5919   -2.5335  -16.6857 N   0  0  0  0  0  0  0  0  0  0  0  0
   14.1321   -1.8077  -17.8743 C   0  0  2  0  0  0  0  0  0  0  0  0
   15.1362   -0.7045  -18.3308 C   0  0  0  0  0  0  0  0  0  0  0  0
   15.2890    0.4148  -17.2875 C   0  0  0  0  0  0  0  0  0  0  0  0
   14.6691   -0.0612  -19.6453 C   0  0  0  0  0  0  0  0  0  0  0  0
   16.5190   -1.3263  -18.5872 C   0  0  0  0  0  0  0  0  0  0  0  0
   12.7531   -1.2310  -17.5232 C   0  0  0  0  0  0  0  0  0  0  0  0
   12.5859   -0.6049  -16.4861 O   0  0  0  0  0  0  0  0  0  0  0  0
   11.7118   -1.4328  -18.4297 N   0  0  0  0  0  0  0  0  0  0  0  0
   10.4609   -0.6882  -18.3119 C   0  0  2  0  0  0  0  0  0  0  0  0
    9.5658   -1.1033  -17.1361 C   0  0  0  0  0  0  0  0  0  0  0  0
    9.8717   -1.9683  -16.3276 O   0  0  0  0  0  0  0  0  0  0  0  0
    8.4058   -0.3535  -17.0659 N   0  0  0  0  0  0  0  0  0  0  0  0
    7.3873   -0.5211  -16.0428 C   0  0  1  0  0  0  0  0  0  0  0  0
    7.7679    0.2276  -14.7664 C   0  0  0  0  0  0  0  0  0  0  0  0
    6.0405   -0.0828  -16.5887 C   0  0  0  0  0  0  0  0  0  0  0  0
    5.0025   -1.0024  -16.7170 C   0  0  0  0  0  0  0  0  0  0  0  0
    3.7999   -0.6449  -17.3062 C   0  0  0  0  0  0  0  0  0  0  0  0
    3.6005    0.6417  -17.7921 C   0  0  0  0  0  0  0  0  0  0  0  0
    2.3680    0.9923  -18.4803 C   0  0  0  0  0  0  0  0  0  0  0  0
    2.0680    1.0030  -19.8352 C   0  0  0  0  0  0  0  0  0  0  0  0
    2.9854    0.6593  -20.9454 C   0  0  0  0  0  0  0  0  0  0  0  0
    0.7703    1.3676  -20.1418 N   0  0  0  0  0  0  0  0  0  0  0  0
    0.1237    1.6714  -19.0385 C   0  0  0  0  0  0  0  0  0  0  0  0
    0.9925    1.4868  -17.5813 S   0  0  0  0  0  0  0  0  0  0  0  0
    4.6152    1.5760  -17.6334 C   0  0  0  0  0  0  0  0  0  0  0  0
    5.8129    1.2210  -17.0344 C   0  0  0  0  0  0  0  0  0  0  0  0
    9.7687   -0.9011  -19.6571 C   0  0  0  0  0  0  0  0  0  0  0  0
   10.3004   -2.2422  -20.1246 C   0  0  1  0  0  0  0  0  0  0  0  0
   10.2117   -2.3689  -21.5423 O   0  0  0  0  0  0  0  0  0  0  0  0
   11.7433   -2.2096  -19.6566 C   0  0  0  0  0  0  0  0  0  0  0  0
   15.1229   -3.8275  -14.6241 H   0  0  0  0  0  0  0  0  0  0  0  0
   16.6476   -4.3454  -15.3895 H   0  0  0  0  0  0  0  0  0  0  0  0
   15.2237   -5.4189  -15.3992 H   0  0  0  0  0  0  0  0  0  0  0  0
   14.4653   -2.1011  -15.7708 H   0  0  0  0  0  0  0  0  0  0  0  0
   14.0303   -2.5401  -18.6782 H   0  0  0  0  0  0  0  0  0  0  0  0
   14.3896    1.0309  -17.2201 H   0  0  0  0  0  0  0  0  0  0  0  0
   16.1071    1.0937  -17.5479 H   0  0  0  0  0  0  0  0  0  0  0  0
   15.4949    0.0180  -16.2890 H   0  0  0  0  0  0  0  0  0  0  0  0
   15.3725    0.7042  -19.9872 H   0  0  0  0  0  0  0  0  0  0  0  0
   13.6959    0.4264  -19.5262 H   0  0  0  0  0  0  0  0  0  0  0  0
   14.5585   -0.7984  -20.4466 H   0  0  0  0  0  0  0  0  0  0  0  0
   16.9629   -1.7310  -17.6730 H   0  0  0  0  0  0  0  0  0  0  0  0
   17.2240   -0.5868  -18.9808 H   0  0  0  0  0  0  0  0  0  0  0  0
   16.4632   -2.1391  -19.3183 H   0  0  0  0  0  0  0  0  0  0  0  0
   10.7048    0.3691  -18.1789 H   0  0  0  0  0  0  0  0  0  0  0  0
    8.2659    0.3840  -17.7457 H   0  0  0  0  0  0  0  0  0  0  0  0
    7.3500   -1.5888  -15.8006 H   0  0  0  0  0  0  0  0  0  0  0  0
    8.7167   -0.1385  -14.3614 H   0  0  0  0  0  0  0  0  0  0  0  0
    7.0027    0.1072  -13.9929 H   0  0  0  0  0  0  0  0  0  0  0  0
    7.8922    1.2983  -14.9514 H   0  0  0  0  0  0  0  0  0  0  0  0
    5.1331   -2.0261  -16.3771 H   0  0  0  0  0  0  0  0  0  0  0  0
    3.0197   -1.3936  -17.4083 H   0  0  0  0  0  0  0  0  0  0  0  0
    3.8117    1.3738  -20.9991 H   0  0  0  0  0  0  0  0  0  0  0  0
    2.4652    0.6771  -21.9076 H   0  0  0  0  0  0  0  0  0  0  0  0
    3.4027   -0.3425  -20.8104 H   0  0  0  0  0  0  0  0  0  0  0  0
   -0.9020    2.0110  -19.0422 H   0  0  0  0  0  0  0  0  0  0  0  0
    4.4763    2.5930  -17.9880 H   0  0  0  0  0  0  0  0  0  0  0  0
    6.5886    1.9748  -16.9431 H   0  0  0  0  0  0  0  0  0  0  0  0
    8.6747   -0.8947  -19.6207 H   0  0  0  0  0  0  0  0  0  0  0  0
   10.0616   -0.1159  -20.3642 H   0  0  0  0  0  0  0  0  0  0  0  0
    9.7558   -3.0676  -19.6515 H   0  0  0  0  0  0  0  0  0  0  0  0
    9.2699   -2.3209  -21.7835 H   0  0  0  0  0  0  0  0  0  0  0  0
   12.3889   -1.7055  -20.3822 H   0  0  0  0  0  0  0  0  0  0  0  0
   12.1513   -3.2107  -19.4929 H   0  0  0  0  0  0  0  0  0  0  0  0
  1 35  1  0  0  0  0
  1 36  1  0  0  0  0
  1 37  1  0  0  0  0
  1  2  1  0  0  0  0
  2  3  2  0  0  0  0
  2  4  1  0  0  0  0
  4 38  1  0  0  0  0
  5  4  1  0  0  0  0
  5 39  1  0  0  0  0
  5  6  1  0  0  0  0
  5 10  1  0  0  0  0
  6  7  1  0  0  0  0
  6  8  1  0  0  0  0
  6  9  1  0  0  0  0
  7 40  1  0  0  0  0
  7 41  1  0  0  0  0
  7 42  1  0  0  0  0
  8 43  1  0  0  0  0
  8 44  1  0  0  0  0
  8 45  1  0  0  0  0
  9 46  1  0  0  0  0
  9 47  1  0  0  0  0
  9 48  1  0  0  0  0
 10 11  2  0  0  0  0
 10 12  1  0  0  0  0
 12 34  1  0  0  0  0
 13 12  1  0  0  0  0
 13 31  1  0  0  0  0
 13 49  1  0  0  0  0
 13 14  1  0  0  0  0
 14 15  2  0  0  0  0
 14 16  1  0  0  0  0
 16 50  1  0  0  0  0
 17 16  1  0  0  0  0
 17 51  1  0  0  0  0
 17 18  1  0  0  0  0
 17 19  1  0  0  0  0
 18 52  1  0  0  0  0
 18 53  1  0  0  0  0
 18 54  1  0  0  0  0
 19 20  1  0  0  0  0
 19 30  2  0  0  0  0
 20 55  1  0  0  0  0
 20 21  2  0  0  0  0
 21 56  1  0  0  0  0
 21 22  1  0  0  0  0
 22 29  2  0  0  0  0
 22 23  1  0  0  0  0
 23 24  2  0  0  0  0
 23 28  1  0  0  0  0
 24 25  1  0  0  0  0
 24 26  1  0  0  0  0
 25 57  1  0  0  0  0
 25 58  1  0  0  0  0
 25 59  1  0  0  0  0
 26 27  2  0  0  0  0
 27 60  1  0  0  0  0
 27 28  1  0  0  0  0
 29 61  1  0  0  0  0
 29 30  1  0  0  0  0
 30 62  1  0  0  0  0
 32 31  1  0  0  0  0
 31 63  1  0  0  0  0
 31 64  1  0  0  0  0
 32 34  1  0  0  0  0
 32 65  1  0  0  0  0
 32 33  1  0  0  0  0
 33 66  1  0  0  0  0
 34 67  1  0  0  0  0
 34 68  1  0  0  0  0
M  ZZC   1 c1
M  ZZC   2 c2
M  ZZC   3 o1
M  ZZC   4 n1
M  ZZC   5 c3
M  ZZC   6 c4
M  ZZC   7 c5
M  ZZC   8 c6
M  ZZC   9 c7
M  ZZC  10 c8
M  ZZC  11 o2
M  ZZC  12 n2
M  ZZC  13 c9
M  ZZC  14 c10
M  ZZC  15 o3
M  ZZC  16 n3
M  ZZC  17 c11
M  ZZC  18 c12
M  ZZC  19 c13
M  ZZC  20 c14
M  ZZC  21 c15
M  ZZC  22 c16
M  ZZC  23 c17
M  ZZC  24 c18
M  ZZC  25 c19
M  ZZC  26 n4
M  ZZC  27 c20
M  ZZC  28 s1
M  ZZC  29 c21
M  ZZC  30 c22
M  ZZC  31 c23
M  ZZC  32 c24
M  ZZC  33 o4
M  ZZC  34 c25
M  ZZC  35 h11
M  ZZC  36 h12
M  ZZC  37 h13
M  ZZC  38 h01
M  ZZC  39 h31
M  ZZC  40 h51
M  ZZC  41 h52
M  ZZC  42 h53
M  ZZC  43 h61
M  ZZC  44 h62
M  ZZC  45 h63
M  ZZC  46 h71
M  ZZC  47 h72
M  ZZC  48 h73
M  ZZC  49 h91
M  ZZC  50 h02
M  ZZC  51 h111
M  ZZC  52 h121
M  ZZC  53 h122
M  ZZC  54 h123
M  ZZC  55 h141
M  ZZC  56 h151
M  ZZC  57 h191
M  ZZC  58 h192
M  ZZC  59 h193
M  ZZC  60 h201
M  ZZC  61 h211
M  ZZC  62 h221
M  ZZC  63 h231
M  ZZC  64 h232
M  ZZC  65 h241
M  ZZC  66 h41
M  ZZC  67 h251
M  ZZC  68 h252
M  ZZM   1 1
M  ZZI   1 111
M  ZZM   2 3
M  ZZI   2 121
M  ZZM   3 7
M  ZZI   3 81
M  ZZM   4 10
M  ZZI   4 211
M  ZZM   5 1
M  ZZI   5 113
M  ZZM   6 1
M  ZZI   6 110
M  ZZM   7 1
M  ZZI   7 111
M  ZZM   8 1
M  ZZI   8 111
M  ZZM   9 1
M  ZZI   9 111
M  ZZM  10 3
M  ZZI  10 121
M  ZZM  11 7
M  ZZI  11 81
M  ZZM  12 10
M  ZZI  12 192
M  ZZM  13 1
M  ZZI  13 113
M  ZZM  14 3
M  ZZI  14 121
M  ZZM  15 7
M  ZZI  15 81
M  ZZM  16 10
M  ZZI  16 211
M  ZZM  17 1
M  ZZI  17 113
M  ZZM  18 1
M  ZZI  18 111
M  ZZM  19 37
M  ZZI  19 124
M  ZZM  20 37
M  ZZI  20 125
M  ZZM  21 37
M  ZZI  21 125
M  ZZM  22 37
M  ZZI  22 124
M  ZZM  23 63
M  ZZI  23 104
M  ZZM  24 64
M  ZZI  24 105
M  ZZM  25 1
M  ZZI  25 111
M  ZZM  26 66
M  ZZI  26 222
M  ZZM  27 63
M  ZZI  27 104
M  ZZM  28 44
M  ZZI  28 248
M  ZZM  29 37
M  ZZI  29 125
M  ZZM  30 37
M  ZZI  30 125
M  ZZM  31 1
M  ZZI  31 112
M  ZZM  32 1
M  ZZI  32 113
M  ZZM  33 6
M  ZZI  33 60
M  ZZM  34 1
M  ZZI  34 112
M  ZZM  35 5
M  ZZI  35 1
M  ZZM  36 5
M  ZZI  36 1
M  ZZM  37 5
M  ZZI  37 1
M  ZZM  38 28
M  ZZI  38 11
M  ZZM  39 5
M  ZZI  39 1
M  ZZM  40 5
M  ZZI  40 1
M  ZZM  41 5
M  ZZI  41 1
M  ZZM  42 5
M  ZZI  42 1
M  ZZM  43 5
M  ZZI  43 1
M  ZZM  44 5
M  ZZI  44 1
M  ZZM  45 5
M  ZZI  45 1
M  ZZM  46 5
M  ZZI  46 1
M  ZZM  47 5
M  ZZI  47 1
M  ZZM  48 5
M  ZZI  48 1
M  ZZM  49 5
M  ZZI  49 1
M  ZZM  50 28
M  ZZI  50 11
M  ZZM  51 5
M  ZZI  51 1
M  ZZM  52 5
M  ZZI  52 1
M  ZZM  53 5
M  ZZI  53 1
M  ZZM  54 5
M  ZZI  54 1
M  ZZM  55 5
M  ZZI  55 1
M  ZZM  56 5
M  ZZI  56 1
M  ZZM  57 5
M  ZZI  57 1
M  ZZM  58 5
M  ZZI  58 1
M  ZZM  59 5
M  ZZI  59 1
M  ZZM  60 5
M  ZZI  60 1
M  ZZM  61 5
M  ZZI  61 1
M  ZZM  62 5
M  ZZI  62 1
M  ZZM  63 5
M  ZZI  63 1
M  ZZM  64 5
M  ZZI  64 1
M  ZZM  65 5
M  ZZI  65 1
M  ZZM  66 21
M  ZZI  66 20
M  ZZM  67 5
M  ZZI  67 1
M  ZZM  68 5
M  ZZI  68 1
M  END
> <IX>
1

> <NAME>
VHL_5EHR_1.pdb

> <Score>
-16.602888

> <Natom>
68

> <Nflex>
8

> <Hbond>
-4.020684

> <Hphob>
-6.346633

> <VwInt>
-30.558394

> <Dsolv>
16.145044

> <SolEl>
12.033009

> <Eintl>
5.88252

> <RecConf>
ND

> <projPath>
VHL_maps/

> <NAME_>
VHL_5EHR_1.pdb

$$$$
