VHL_6W8L_11.pdb
  MOLSOFT 04032206423D

 65 67  0  0  1  0  0  0  0  0999 V2000
   18.7630   -5.8533   -5.6522 C   0  0  0  0  0  0  0  0  0  0  0  0
   17.4248   -5.2817   -5.2618 C   0  0  0  0  0  0  0  0  0  0  0  0
   16.3939   -5.8881   -5.5075 O   0  0  0  0  0  0  0  0  0  0  0  0
   17.4928   -4.0574   -4.6163 N   0  0  0  0  0  0  0  0  0  0  0  0
   16.3135   -3.2730   -4.2329 C   0  0  1  0  0  0  0  0  0  0  0  0
   15.7754   -3.5759   -2.7958 C   0  0  0  0  0  0  0  0  0  0  0  0
   15.3831   -5.0542   -2.6645 C   0  0  0  0  0  0  0  0  0  0  0  0
   16.7900   -3.2683   -1.6809 C   0  0  0  0  0  0  0  0  0  0  0  0
   14.5084   -2.7416   -2.5445 C   0  0  0  0  0  0  0  0  0  0  0  0
   16.6771   -1.7857   -4.4228 C   0  0  0  0  0  0  0  0  0  0  0  0
   17.3998   -1.1940   -3.6326 O   0  0  0  0  0  0  0  0  0  0  0  0
   16.1888   -1.1415   -5.5591 N   0  0  0  0  0  0  0  0  0  0  0  0
   16.2830    0.3001   -5.7126 C   0  0  2  0  0  0  0  0  0  0  0  0
   15.0484    0.9445   -5.0705 C   0  0  0  0  0  0  0  0  0  0  0  0
   13.9207    0.8144   -5.5283 O   0  0  0  0  0  0  0  0  0  0  0  0
   15.3273    1.6474   -3.9121 N   0  0  0  0  0  0  0  0  0  0  0  0
   14.3116    2.3981   -3.1980 C   0  0  0  0  0  0  0  0  0  0  0  0
   14.2334    3.8526   -3.6009 C   0  0  0  0  0  0  0  0  0  0  0  0
   14.9927    4.3947   -4.6359 C   0  0  0  0  0  0  0  0  0  0  0  0
   14.8806    5.7288   -4.9836 C   0  0  0  0  0  0  0  0  0  0  0  0
   14.0004    6.5749   -4.3162 C   0  0  0  0  0  0  0  0  0  0  0  0
   13.8820    7.9845   -4.6828 C   0  0  0  0  0  0  0  0  0  0  0  0
   13.8193    9.1302   -3.8952 C   0  0  0  0  0  0  0  0  0  0  0  0
   13.8903    9.2114   -2.4163 C   0  0  0  0  0  0  0  0  0  0  0  0
   13.6912   10.3157   -4.5940 N   0  0  0  0  0  0  0  0  0  0  0  0
   13.7266   10.0739   -5.8852 C   0  0  0  0  0  0  0  0  0  0  0  0
   13.7998    8.4341   -6.3454 S   0  0  0  0  0  0  0  0  0  0  0  0
   13.2423    6.0351   -3.2833 C   0  0  0  0  0  0  0  0  0  0  0  0
   13.3590    4.7002   -2.9293 C   0  0  0  0  0  0  0  0  0  0  0  0
   16.2993    0.5267   -7.2139 C   0  0  0  0  0  0  0  0  0  0  0  0
   15.5809   -0.6792   -7.8111 C   0  0  1  0  0  0  0  0  0  0  0  0
   16.2637   -1.1224   -8.9892 O   0  0  0  0  0  0  0  0  0  0  0  0
   15.5909   -1.7548   -6.7262 C   0  0  0  0  0  0  0  0  0  0  0  0
   19.5326   -5.0789   -5.6939 H   0  0  0  0  0  0  0  0  0  0  0  0
   18.6924   -6.3113   -6.6415 H   0  0  0  0  0  0  0  0  0  0  0  0
   19.0502   -6.6219   -4.9326 H   0  0  0  0  0  0  0  0  0  0  0  0
   18.4062   -3.6678   -4.4116 H   0  0  0  0  0  0  0  0  0  0  0  0
   15.5196   -3.5280   -4.9331 H   0  0  0  0  0  0  0  0  0  0  0  0
   14.9040   -5.2587   -1.7027 H   0  0  0  0  0  0  0  0  0  0  0  0
   16.2504   -5.7165   -2.7330 H   0  0  0  0  0  0  0  0  0  0  0  0
   14.6722   -5.3450   -3.4399 H   0  0  0  0  0  0  0  0  0  0  0  0
   16.4607   -3.6779   -0.7204 H   0  0  0  0  0  0  0  0  0  0  0  0
   16.9262   -2.1956   -1.5235 H   0  0  0  0  0  0  0  0  0  0  0  0
   17.7699   -3.6964   -1.8969 H   0  0  0  0  0  0  0  0  0  0  0  0
   14.7214   -1.6693   -2.5942 H   0  0  0  0  0  0  0  0  0  0  0  0
   14.0851   -2.9486   -1.5561 H   0  0  0  0  0  0  0  0  0  0  0  0
   13.7272   -2.9420   -3.2837 H   0  0  0  0  0  0  0  0  0  0  0  0
   17.1959    0.6846   -5.2429 H   0  0  0  0  0  0  0  0  0  0  0  0
   16.2726    1.6616   -3.5435 H   0  0  0  0  0  0  0  0  0  0  0  0
   13.3384    1.9210   -3.3561 H   0  0  0  0  0  0  0  0  0  0  0  0
   14.5604    2.3267   -2.1341 H   0  0  0  0  0  0  0  0  0  0  0  0
   15.6902    3.7822   -5.1969 H   0  0  0  0  0  0  0  0  0  0  0  0
   15.5035    6.1022   -5.7906 H   0  0  0  0  0  0  0  0  0  0  0  0
   12.9480    8.8947   -1.9609 H   0  0  0  0  0  0  0  0  0  0  0  0
   14.0889   10.2368   -2.0906 H   0  0  0  0  0  0  0  0  0  0  0  0
   14.6935    8.5803   -2.0249 H   0  0  0  0  0  0  0  0  0  0  0  0
   13.6952   10.8636   -6.6213 H   0  0  0  0  0  0  0  0  0  0  0  0
   12.5329    6.6559   -2.7481 H   0  0  0  0  0  0  0  0  0  0  0  0
   12.7455    4.3155   -2.1193 H   0  0  0  0  0  0  0  0  0  0  0  0
   15.8212    1.4666   -7.5099 H   0  0  0  0  0  0  0  0  0  0  0  0
   17.3341    0.5809   -7.5678 H   0  0  0  0  0  0  0  0  0  0  0  0
   14.5535   -0.4267   -8.0864 H   0  0  0  0  0  0  0  0  0  0  0  0
   17.2192   -1.0706   -8.7989 H   0  0  0  0  0  0  0  0  0  0  0  0
   16.1419   -2.6570   -7.0060 H   0  0  0  0  0  0  0  0  0  0  0  0
   14.5691   -2.0374   -6.4587 H   0  0  0  0  0  0  0  0  0  0  0  0
  1 34  1  0  0  0  0
  1 35  1  0  0  0  0
  1 36  1  0  0  0  0
  1  2  1  0  0  0  0
  2  3  2  0  0  0  0
  2  4  1  0  0  0  0
  4 37  1  0  0  0  0
  5  4  1  0  0  0  0
  5 38  1  0  0  0  0
  5  6  1  0  0  0  0
  5 10  1  0  0  0  0
  6  7  1  0  0  0  0
  6  8  1  0  0  0  0
  6  9  1  0  0  0  0
  7 39  1  0  0  0  0
  7 40  1  0  0  0  0
  7 41  1  0  0  0  0
  8 42  1  0  0  0  0
  8 43  1  0  0  0  0
  8 44  1  0  0  0  0
  9 45  1  0  0  0  0
  9 46  1  0  0  0  0
  9 47  1  0  0  0  0
 10 11  2  0  0  0  0
 10 12  1  0  0  0  0
 12 33  1  0  0  0  0
 13 12  1  0  0  0  0
 13 30  1  0  0  0  0
 13 48  1  0  0  0  0
 13 14  1  0  0  0  0
 14 15  2  0  0  0  0
 14 16  1  0  0  0  0
 16 49  1  0  0  0  0
 16 17  1  0  0  0  0
 17 50  1  0  0  0  0
 17 51  1  0  0  0  0
 17 18  1  0  0  0  0
 18 19  1  0  0  0  0
 18 29  2  0  0  0  0
 19 52  1  0  0  0  0
 19 20  2  0  0  0  0
 20 53  1  0  0  0  0
 20 21  1  0  0  0  0
 21 28  2  0  0  0  0
 21 22  1  0  0  0  0
 22 23  2  0  0  0  0
 22 27  1  0  0  0  0
 23 24  1  0  0  0  0
 23 25  1  0  0  0  0
 24 54  1  0  0  0  0
 24 55  1  0  0  0  0
 24 56  1  0  0  0  0
 25 26  2  0  0  0  0
 26 57  1  0  0  0  0
 26 27  1  0  0  0  0
 28 58  1  0  0  0  0
 28 29  1  0  0  0  0
 29 59  1  0  0  0  0
 31 30  1  0  0  0  0
 30 60  1  0  0  0  0
 30 61  1  0  0  0  0
 31 33  1  0  0  0  0
 31 62  1  0  0  0  0
 31 32  1  0  0  0  0
 32 63  1  0  0  0  0
 33 64  1  0  0  0  0
 33 65  1  0  0  0  0
M  ZZC   1 c1
M  ZZC   2 c2
M  ZZC   3 o1
M  ZZC   4 n1
M  ZZC   5 c3
M  ZZC   6 c4
M  ZZC   7 c5
M  ZZC   8 c6
M  ZZC   9 c7
M  ZZC  10 c8
M  ZZC  11 o2
M  ZZC  12 n2
M  ZZC  13 c9
M  ZZC  14 c10
M  ZZC  15 o3
M  ZZC  16 n3
M  ZZC  17 c11
M  ZZC  18 c12
M  ZZC  19 c13
M  ZZC  20 c14
M  ZZC  21 c15
M  ZZC  22 c16
M  ZZC  23 c17
M  ZZC  24 c18
M  ZZC  25 n4
M  ZZC  26 c19
M  ZZC  27 s1
M  ZZC  28 c20
M  ZZC  29 c21
M  ZZC  30 c22
M  ZZC  31 c23
M  ZZC  32 o4
M  ZZC  33 c24
M  ZZC  34 h11
M  ZZC  35 h12
M  ZZC  36 h13
M  ZZC  37 h01
M  ZZC  38 h31
M  ZZC  39 h51
M  ZZC  40 h52
M  ZZC  41 h53
M  ZZC  42 h61
M  ZZC  43 h62
M  ZZC  44 h63
M  ZZC  45 h71
M  ZZC  46 h72
M  ZZC  47 h73
M  ZZC  48 h91
M  ZZC  49 h02
M  ZZC  50 h111
M  ZZC  51 h112
M  ZZC  52 h131
M  ZZC  53 h141
M  ZZC  54 h181
M  ZZC  55 h182
M  ZZC  56 h183
M  ZZC  57 h191
M  ZZC  58 h201
M  ZZC  59 h211
M  ZZC  60 h221
M  ZZC  61 h222
M  ZZC  62 h231
M  ZZC  63 h41
M  ZZC  64 h241
M  ZZC  65 h242
M  ZZM   1 1
M  ZZI   1 111
M  ZZM   2 3
M  ZZI   2 121
M  ZZM   3 7
M  ZZI   3 81
M  ZZM   4 10
M  ZZI   4 211
M  ZZM   5 1
M  ZZI   5 113
M  ZZM   6 1
M  ZZI   6 110
M  ZZM   7 1
M  ZZI   7 111
M  ZZM   8 1
M  ZZI   8 111
M  ZZM   9 1
M  ZZI   9 111
M  ZZM  10 3
M  ZZI  10 121
M  ZZM  11 7
M  ZZI  11 81
M  ZZM  12 10
M  ZZI  12 192
M  ZZM  13 1
M  ZZI  13 113
M  ZZM  14 3
M  ZZI  14 121
M  ZZM  15 7
M  ZZI  15 81
M  ZZM  16 10
M  ZZI  16 211
M  ZZM  17 1
M  ZZI  17 112
M  ZZM  18 37
M  ZZI  18 124
M  ZZM  19 37
M  ZZI  19 125
M  ZZM  20 37
M  ZZI  20 125
M  ZZM  21 37
M  ZZI  21 124
M  ZZM  22 63
M  ZZI  22 104
M  ZZM  23 64
M  ZZI  23 105
M  ZZM  24 1
M  ZZI  24 111
M  ZZM  25 66
M  ZZI  25 222
M  ZZM  26 63
M  ZZI  26 104
M  ZZM  27 44
M  ZZI  27 248
M  ZZM  28 37
M  ZZI  28 125
M  ZZM  29 37
M  ZZI  29 125
M  ZZM  30 1
M  ZZI  30 112
M  ZZM  31 1
M  ZZI  31 113
M  ZZM  32 6
M  ZZI  32 60
M  ZZM  33 1
M  ZZI  33 112
M  ZZM  34 5
M  ZZI  34 1
M  ZZM  35 5
M  ZZI  35 1
M  ZZM  36 5
M  ZZI  36 1
M  ZZM  37 28
M  ZZI  37 11
M  ZZM  38 5
M  ZZI  38 1
M  ZZM  39 5
M  ZZI  39 1
M  ZZM  40 5
M  ZZI  40 1
M  ZZM  41 5
M  ZZI  41 1
M  ZZM  42 5
M  ZZI  42 1
M  ZZM  43 5
M  ZZI  43 1
M  ZZM  44 5
M  ZZI  44 1
M  ZZM  45 5
M  ZZI  45 1
M  ZZM  46 5
M  ZZI  46 1
M  ZZM  47 5
M  ZZI  47 1
M  ZZM  48 5
M  ZZI  48 1
M  ZZM  49 28
M  ZZI  49 11
M  ZZM  50 5
M  ZZI  50 1
M  ZZM  51 5
M  ZZI  51 1
M  ZZM  52 5
M  ZZI  52 1
M  ZZM  53 5
M  ZZI  53 1
M  ZZM  54 5
M  ZZI  54 1
M  ZZM  55 5
M  ZZI  55 1
M  ZZM  56 5
M  ZZI  56 1
M  ZZM  57 5
M  ZZI  57 1
M  ZZM  58 5
M  ZZI  58 1
M  ZZM  59 5
M  ZZI  59 1
M  ZZM  60 5
M  ZZI  60 1
M  ZZM  61 5
M  ZZI  61 1
M  ZZM  62 5
M  ZZI  62 1
M  ZZM  63 21
M  ZZI  63 20
M  ZZM  64 5
M  ZZI  64 1
M  ZZM  65 5
M  ZZI  65 1
M  END
> <IX>
1

> <NAME>
VHL_6W8L_11.pdb

> <Score>
-22.512076

> <Natom>
65

> <Nflex>
8

> <Hbond>
-7.313619

> <Hphob>
-6.560201

> <VwInt>
-27.029301

> <Dsolv>
17.422572

> <SolEl>
6.330515

> <Eintl>
8.951577

> <RecConf>
ND

> <projPath>
VHL_maps/

> <NAME_>
VHL_6W8L_11.pdb

$$$$
