VHL_1ERR_5.pdb
  MOLSOFT 04032206353D

 68 70  0  0  1  0  0  0  0  0999 V2000
   15.8052   -6.2168   -5.4600 O   0  0  0  0  0  0  0  0  0  0  0  0
   16.8882   -5.8956   -5.0025 C   0  0  0  0  0  0  0  0  0  0  0  0
   17.1455   -4.7230   -4.3197 N   0  0  0  0  0  0  0  0  0  0  0  0
   16.1657   -3.6508   -4.0784 C   0  0  1  0  0  0  0  0  0  0  0  0
   15.8587   -3.4787   -2.5615 C   0  0  0  0  0  0  0  0  0  0  0  0
   15.3601   -4.8234   -2.0177 C   0  0  0  0  0  0  0  0  0  0  0  0
   17.0905   -3.0321   -1.7611 C   0  0  0  0  0  0  0  0  0  0  0  0
   14.7462   -2.4565   -2.3017 C   0  0  0  0  0  0  0  0  0  0  0  0
   16.7613   -2.4240   -4.7973 C   0  0  0  0  0  0  0  0  0  0  0  0
   17.9689   -2.2191   -4.7856 O   0  0  0  0  0  0  0  0  0  0  0  0
   15.8976   -1.5723   -5.4906 N   0  0  0  0  0  0  0  0  0  0  0  0
   16.4280   -0.6125   -6.4464 C   0  0  2  0  0  0  0  0  0  0  0  0
   16.9238    0.6669   -5.7692 C   0  0  0  0  0  0  0  0  0  0  0  0
   16.5348    1.0258   -4.6659 O   0  0  0  0  0  0  0  0  0  0  0  0
   17.8188    1.3828   -6.5480 N   0  0  0  0  0  0  0  0  0  0  0  0
   18.4272    2.6326   -6.1111 C   0  0  1  0  0  0  0  0  0  0  0  0
   19.8054    2.7970   -6.7568 C   0  0  0  0  0  0  0  0  0  0  0  0
   17.5004    3.8147   -6.3505 C   0  0  0  0  0  0  0  0  0  0  0  0
   16.5402    4.1447   -5.3950 C   0  0  0  0  0  0  0  0  0  0  0  0
   15.6591    5.1947   -5.5839 C   0  0  0  0  0  0  0  0  0  0  0  0
   15.7112    5.9604   -6.7407 C   0  0  0  0  0  0  0  0  0  0  0  0
   14.7791    7.0551   -6.9609 C   0  0  0  0  0  0  0  0  0  0  0  0
   13.8292    7.2319   -7.9555 C   0  0  0  0  0  0  0  0  0  0  0  0
   13.5058    6.2807   -9.0403 C   0  0  0  0  0  0  0  0  0  0  0  0
   13.1342    8.4224   -7.8965 N   0  0  0  0  0  0  0  0  0  0  0  0
   13.5481    9.1215   -6.8634 C   0  0  0  0  0  0  0  0  0  0  0  0
   14.7637    8.4087   -5.9014 S   0  0  0  0  0  0  0  0  0  0  0  0
   16.6671    5.6467   -7.6984 C   0  0  0  0  0  0  0  0  0  0  0  0
   17.5461    4.5944   -7.5067 C   0  0  0  0  0  0  0  0  0  0  0  0
   15.2690   -0.3536   -7.3962 C   0  0  0  0  0  0  0  0  0  0  0  0
   14.0383   -0.5037   -6.5181 C   0  0  1  0  0  0  0  0  0  0  0  0
   12.9341   -0.9805   -7.2850 O   0  0  0  0  0  0  0  0  0  0  0  0
   14.4470   -1.5270   -5.4680 C   0  0  0  0  0  0  0  0  0  0  0  0
   18.0834   -6.7999   -5.1218 C   0  0  0  0  0  0  0  0  0  0  0  0
   18.1053   -4.5426   -4.0483 H   0  0  0  0  0  0  0  0  0  0  0  0
   15.2422   -3.9404   -4.5775 H   0  0  0  0  0  0  0  0  0  0  0  0
   14.4810   -5.1776   -2.5656 H   0  0  0  0  0  0  0  0  0  0  0  0
   15.0767   -4.7412   -0.9661 H   0  0  0  0  0  0  0  0  0  0  0  0
   16.1227   -5.6008   -2.0943 H   0  0  0  0  0  0  0  0  0  0  0  0
   17.4441   -2.0450   -2.0746 H   0  0  0  0  0  0  0  0  0  0  0  0
   17.9195   -3.7277   -1.8752 H   0  0  0  0  0  0  0  0  0  0  0  0
   16.8701   -2.9716   -0.6904 H   0  0  0  0  0  0  0  0  0  0  0  0
   13.8353   -2.7089   -2.8532 H   0  0  0  0  0  0  0  0  0  0  0  0
   15.0571   -1.4440   -2.5731 H   0  0  0  0  0  0  0  0  0  0  0  0
   14.4753   -2.4219   -1.2412 H   0  0  0  0  0  0  0  0  0  0  0  0
   17.2705   -1.0588   -6.9792 H   0  0  0  0  0  0  0  0  0  0  0  0
   18.1118    0.9908   -7.4378 H   0  0  0  0  0  0  0  0  0  0  0  0
   18.5938    2.5503   -5.0306 H   0  0  0  0  0  0  0  0  0  0  0  0
   20.2905    3.7138   -6.4155 H   0  0  0  0  0  0  0  0  0  0  0  0
   19.7332    2.8411   -7.8480 H   0  0  0  0  0  0  0  0  0  0  0  0
   20.4878    1.9842   -6.4963 H   0  0  0  0  0  0  0  0  0  0  0  0
   16.4653    3.5704   -4.4764 H   0  0  0  0  0  0  0  0  0  0  0  0
   14.9175    5.4030   -4.8179 H   0  0  0  0  0  0  0  0  0  0  0  0
   14.2862    6.2816   -9.8023 H   0  0  0  0  0  0  0  0  0  0  0  0
   12.5654    6.5467   -9.5323 H   0  0  0  0  0  0  0  0  0  0  0  0
   13.4146    5.2652   -8.6475 H   0  0  0  0  0  0  0  0  0  0  0  0
   13.1486   10.0957   -6.6242 H   0  0  0  0  0  0  0  0  0  0  0  0
   16.7400    6.2331   -8.6107 H   0  0  0  0  0  0  0  0  0  0  0  0
   18.2769    4.3977   -8.2824 H   0  0  0  0  0  0  0  0  0  0  0  0
   15.3078    0.6275   -7.8813 H   0  0  0  0  0  0  0  0  0  0  0  0
   15.2551   -1.1050   -8.1944 H   0  0  0  0  0  0  0  0  0  0  0  0
   13.7726    0.4566   -6.0604 H   0  0  0  0  0  0  0  0  0  0  0  0
   12.1148   -0.7102   -6.8339 H   0  0  0  0  0  0  0  0  0  0  0  0
   14.0269   -2.5185   -5.6343 H   0  0  0  0  0  0  0  0  0  0  0  0
   14.1113   -1.1853   -4.4896 H   0  0  0  0  0  0  0  0  0  0  0  0
   18.0034   -7.4437   -6.0030 H   0  0  0  0  0  0  0  0  0  0  0  0
   18.1481   -7.4358   -4.2340 H   0  0  0  0  0  0  0  0  0  0  0  0
   18.9859   -6.1881   -5.1923 H   0  0  0  0  0  0  0  0  0  0  0  0
  1  2  2  0  0  0  0
  2  3  1  0  0  0  0
  2 34  1  0  0  0  0
  4  3  1  0  0  0  0
  3 35  1  0  0  0  0
  4  5  1  0  0  0  0
  4 36  1  0  0  0  0
  4  9  1  0  0  0  0
  5  6  1  0  0  0  0
  5  7  1  0  0  0  0
  5  8  1  0  0  0  0
  6 37  1  0  0  0  0
  6 38  1  0  0  0  0
  6 39  1  0  0  0  0
  7 40  1  0  0  0  0
  7 41  1  0  0  0  0
  7 42  1  0  0  0  0
  8 43  1  0  0  0  0
  8 44  1  0  0  0  0
  8 45  1  0  0  0  0
  9 10  2  0  0  0  0
  9 11  1  0  0  0  0
 11 33  1  0  0  0  0
 12 11  1  0  0  0  0
 12 30  1  0  0  0  0
 12 46  1  0  0  0  0
 12 13  1  0  0  0  0
 13 14  2  0  0  0  0
 13 15  1  0  0  0  0
 15 47  1  0  0  0  0
 16 15  1  0  0  0  0
 16 48  1  0  0  0  0
 16 17  1  0  0  0  0
 16 18  1  0  0  0  0
 17 49  1  0  0  0  0
 17 50  1  0  0  0  0
 17 51  1  0  0  0  0
 18 19  1  0  0  0  0
 18 29  2  0  0  0  0
 19 52  1  0  0  0  0
 19 20  2  0  0  0  0
 20 53  1  0  0  0  0
 20 21  1  0  0  0  0
 21 28  2  0  0  0  0
 21 22  1  0  0  0  0
 22 23  2  0  0  0  0
 22 27  1  0  0  0  0
 23 24  1  0  0  0  0
 23 25  1  0  0  0  0
 24 54  1  0  0  0  0
 24 55  1  0  0  0  0
 24 56  1  0  0  0  0
 25 26  2  0  0  0  0
 26 57  1  0  0  0  0
 26 27  1  0  0  0  0
 28 58  1  0  0  0  0
 28 29  1  0  0  0  0
 29 59  1  0  0  0  0
 31 30  1  0  0  0  0
 30 60  1  0  0  0  0
 30 61  1  0  0  0  0
 31 33  1  0  0  0  0
 31 62  1  0  0  0  0
 31 32  1  0  0  0  0
 32 63  1  0  0  0  0
 33 64  1  0  0  0  0
 33 65  1  0  0  0  0
 34 66  1  0  0  0  0
 34 67  1  0  0  0  0
 34 68  1  0  0  0  0
M  ZZC   1 o1
M  ZZC   2 c1
M  ZZC   3 n1
M  ZZC   4 c2
M  ZZC   5 c3
M  ZZC   6 c4
M  ZZC   7 c5
M  ZZC   8 c6
M  ZZC   9 c7
M  ZZC  10 o2
M  ZZC  11 n2
M  ZZC  12 c8
M  ZZC  13 c9
M  ZZC  14 o3
M  ZZC  15 n3
M  ZZC  16 c10
M  ZZC  17 c11
M  ZZC  18 c12
M  ZZC  19 c13
M  ZZC  20 c14
M  ZZC  21 c15
M  ZZC  22 c16
M  ZZC  23 c17
M  ZZC  24 c18
M  ZZC  25 n4
M  ZZC  26 c19
M  ZZC  27 s1
M  ZZC  28 c20
M  ZZC  29 c21
M  ZZC  30 c22
M  ZZC  31 c23
M  ZZC  32 o4
M  ZZC  33 c24
M  ZZC  34 c25
M  ZZC  35 h11
M  ZZC  36 h21
M  ZZC  37 h41
M  ZZC  38 h42
M  ZZC  39 h43
M  ZZC  40 h51
M  ZZC  41 h52
M  ZZC  42 h53
M  ZZC  43 h61
M  ZZC  44 h62
M  ZZC  45 h63
M  ZZC  46 h81
M  ZZC  47 h31
M  ZZC  48 h101
M  ZZC  49 h111
M  ZZC  50 h112
M  ZZC  51 h113
M  ZZC  52 h131
M  ZZC  53 h141
M  ZZC  54 h181
M  ZZC  55 h182
M  ZZC  56 h183
M  ZZC  57 h191
M  ZZC  58 h201
M  ZZC  59 h211
M  ZZC  60 h221
M  ZZC  61 h222
M  ZZC  62 h231
M  ZZC  63 h01
M  ZZC  64 h241
M  ZZC  65 h242
M  ZZC  66 h251
M  ZZC  67 h252
M  ZZC  68 h253
M  ZZM   1 7
M  ZZI   1 81
M  ZZM   2 3
M  ZZI   2 121
M  ZZM   3 10
M  ZZI   3 211
M  ZZM   4 1
M  ZZI   4 113
M  ZZM   5 1
M  ZZI   5 110
M  ZZM   6 1
M  ZZI   6 111
M  ZZM   7 1
M  ZZI   7 111
M  ZZM   8 1
M  ZZI   8 111
M  ZZM   9 3
M  ZZI   9 121
M  ZZM  10 7
M  ZZI  10 81
M  ZZM  11 10
M  ZZI  11 192
M  ZZM  12 1
M  ZZI  12 113
M  ZZM  13 3
M  ZZI  13 121
M  ZZM  14 7
M  ZZI  14 81
M  ZZM  15 10
M  ZZI  15 211
M  ZZM  16 1
M  ZZI  16 113
M  ZZM  17 1
M  ZZI  17 111
M  ZZM  18 37
M  ZZI  18 124
M  ZZM  19 37
M  ZZI  19 125
M  ZZM  20 37
M  ZZI  20 125
M  ZZM  21 37
M  ZZI  21 124
M  ZZM  22 63
M  ZZI  22 104
M  ZZM  23 64
M  ZZI  23 105
M  ZZM  24 1
M  ZZI  24 111
M  ZZM  25 66
M  ZZI  25 222
M  ZZM  26 63
M  ZZI  26 104
M  ZZM  27 44
M  ZZI  27 248
M  ZZM  28 37
M  ZZI  28 125
M  ZZM  29 37
M  ZZI  29 125
M  ZZM  30 1
M  ZZI  30 112
M  ZZM  31 1
M  ZZI  31 113
M  ZZM  32 6
M  ZZI  32 60
M  ZZM  33 1
M  ZZI  33 112
M  ZZM  34 1
M  ZZI  34 111
M  ZZM  35 28
M  ZZI  35 11
M  ZZM  36 5
M  ZZI  36 1
M  ZZM  37 5
M  ZZI  37 1
M  ZZM  38 5
M  ZZI  38 1
M  ZZM  39 5
M  ZZI  39 1
M  ZZM  40 5
M  ZZI  40 1
M  ZZM  41 5
M  ZZI  41 1
M  ZZM  42 5
M  ZZI  42 1
M  ZZM  43 5
M  ZZI  43 1
M  ZZM  44 5
M  ZZI  44 1
M  ZZM  45 5
M  ZZI  45 1
M  ZZM  46 5
M  ZZI  46 1
M  ZZM  47 28
M  ZZI  47 11
M  ZZM  48 5
M  ZZI  48 1
M  ZZM  49 5
M  ZZI  49 1
M  ZZM  50 5
M  ZZI  50 1
M  ZZM  51 5
M  ZZI  51 1
M  ZZM  52 5
M  ZZI  52 1
M  ZZM  53 5
M  ZZI  53 1
M  ZZM  54 5
M  ZZI  54 1
M  ZZM  55 5
M  ZZI  55 1
M  ZZM  56 5
M  ZZI  56 1
M  ZZM  57 5
M  ZZI  57 1
M  ZZM  58 5
M  ZZI  58 1
M  ZZM  59 5
M  ZZI  59 1
M  ZZM  60 5
M  ZZI  60 1
M  ZZM  61 5
M  ZZI  61 1
M  ZZM  62 5
M  ZZI  62 1
M  ZZM  63 21
M  ZZI  63 20
M  ZZM  64 5
M  ZZI  64 1
M  ZZM  65 5
M  ZZI  65 1
M  ZZM  66 5
M  ZZI  66 1
M  ZZM  67 5
M  ZZI  67 1
M  ZZM  68 5
M  ZZI  68 1
M  END
> <IX>
1

> <NAME>
VHL_1ERR_5.pdb

> <Score>
-3.199451

> <Natom>
68

> <Nflex>
8

> <Hbond>
-5.01166

> <Hphob>
-6.752013

> <VwInt>
-28.12158

> <Dsolv>
22.791037

> <SolEl>
23.149051

> <Eintl>
8.256376

> <RecConf>
ND

> <projPath>
VHL_maps/

> <NAME_>
VHL_1ERR_5.pdb

$$$$
