VHL_5T8E_21.pdb
  MOLSOFT 04032206443D

 77 80  0  0  1  0  0  0  0  0999 V2000
   14.1970    7.9074   -6.6781 C   0  0  0  0  0  0  0  0  0  0  0  0
   15.1394    6.8978   -6.0439 C   0  0  0  0  0  0  0  0  0  0  0  0
   15.1208    6.9897   -4.5223 C   0  0  0  0  0  0  0  0  0  0  0  0
   13.7661    6.9544   -3.9614 N   0  0  0  0  0  0  0  0  0  0  0  0
   13.4111    6.3582   -2.7446 C   0  0  0  0  0  0  0  0  0  0  0  0
   12.3092    6.5195   -2.2385 O   0  0  0  0  0  0  0  0  0  0  0  0
   14.4055    5.4491   -2.0434 C   0  0  0  0  0  0  0  0  0  0  0  0
   14.0721    3.9844   -2.3496 C   0  0  2  0  0  0  0  0  0  0  0  0
   14.5182    3.1003   -1.2831 N   0  0  0  0  0  0  0  0  0  0  0  0
   13.8244    1.9417   -0.9778 C   0  0  0  0  0  0  0  0  0  0  0  0
   12.6569    1.7461   -1.2918 O   0  0  0  0  0  0  0  0  0  0  0  0
   14.6733    0.9005   -0.2385 C   0  0  2  0  0  0  0  0  0  0  0  0
   14.5099   -0.3875   -0.9004 N   0  0  0  0  0  0  0  0  0  0  0  0
   15.1995   -0.6978   -2.0723 C   0  0  0  0  0  0  0  0  0  0  0  0
   16.0563    0.0491   -2.5234 O   0  0  0  0  0  0  0  0  0  0  0  0
   14.8018   -1.9844   -2.8018 C   0  0  2  0  0  0  0  0  0  0  0  0
   16.0336   -2.9226   -2.9368 C   0  0  0  0  0  0  0  0  0  0  0  0
   16.9797   -2.5950   -4.0985 C   0  0  0  0  0  0  0  0  0  0  0  0
   15.6141   -4.3934   -3.0043 C   0  0  0  0  0  0  0  0  0  0  0  0
   14.1029   -1.5951   -4.0734 C   0  0  0  0  0  0  0  0  0  0  0  0
   14.0946   -2.5034   -5.0868 O   0  0  0  0  0  0  0  0  0  0  0  0
   13.3632   -2.0035   -6.1667 N   0  0  0  0  0  0  0  0  0  0  0  0
   12.9229   -0.8052   -5.7726 C   0  0  0  0  0  0  0  0  0  0  0  0
   12.0716   -0.0016   -6.6720 C   0  0  0  0  0  0  0  0  0  0  0  0
   13.3713   -0.4966   -4.4676 C   0  0  0  0  0  0  0  0  0  0  0  0
   13.6346   -1.2611   -0.1456 C   0  0  0  0  0  0  0  0  0  0  0  0
   13.1653   -0.4430    1.0464 C   0  0  1  0  0  0  0  0  0  0  0  0
   13.1294   -1.2243    2.2397 O   0  0  0  0  0  0  0  0  0  0  0  0
   14.1844    0.6736    1.1802 C   0  0  0  0  0  0  0  0  0  0  0  0
   14.6599    3.4935   -3.6604 C   0  0  0  0  0  0  0  0  0  0  0  0
   15.9738    3.0325   -3.7584 C   0  0  0  0  0  0  0  0  0  0  0  0
   16.4295    2.4204   -4.9133 C   0  0  0  0  0  0  0  0  0  0  0  0
   15.5906    2.2804   -6.0053 C   0  0  0  0  0  0  0  0  0  0  0  0
   16.0189    1.5225   -7.1397 C   0  0  0  0  0  0  0  0  0  0  0  0
   16.3627    0.8078   -8.0408 C   0  0  0  0  0  0  0  0  0  0  0  0
   14.3212    2.8308   -5.9621 C   0  0  0  0  0  0  0  0  0  0  0  0
   13.8680    3.4282   -4.7982 C   0  0  0  0  0  0  0  0  0  0  0  0
   12.7912    7.8397   -4.5988 C   0  0  0  0  0  0  0  0  0  0  0  0
   12.7995    7.7263   -6.1165 C   0  0  0  0  0  0  0  0  0  0  0  0
   14.5482    8.9264   -6.4814 H   0  0  0  0  0  0  0  0  0  0  0  0
   14.1824    7.7765   -7.7651 H   0  0  0  0  0  0  0  0  0  0  0  0
   14.8429    5.8908   -6.3540 H   0  0  0  0  0  0  0  0  0  0  0  0
   16.1576    7.0544   -6.4132 H   0  0  0  0  0  0  0  0  0  0  0  0
   15.7424    6.1923   -4.1180 H   0  0  0  0  0  0  0  0  0  0  0  0
   15.5725    7.9336   -4.1982 H   0  0  0  0  0  0  0  0  0  0  0  0
   15.4461    5.7040   -2.2537 H   0  0  0  0  0  0  0  0  0  0  0  0
   14.2788    5.6384   -0.9718 H   0  0  0  0  0  0  0  0  0  0  0  0
   12.9831    3.8732   -2.4073 H   0  0  0  0  0  0  0  0  0  0  0  0
   15.4594    3.2245   -0.9276 H   0  0  0  0  0  0  0  0  0  0  0  0
   15.7281    1.1984   -0.2561 H   0  0  0  0  0  0  0  0  0  0  0  0
   14.0596   -2.5132   -2.2021 H   0  0  0  0  0  0  0  0  0  0  0  0
   16.6234   -2.8212   -2.0184 H   0  0  0  0  0  0  0  0  0  0  0  0
   16.5359   -2.7989   -5.0763 H   0  0  0  0  0  0  0  0  0  0  0  0
   17.8833   -3.2071   -4.0335 H   0  0  0  0  0  0  0  0  0  0  0  0
   17.2992   -1.5501   -4.0826 H   0  0  0  0  0  0  0  0  0  0  0  0
   16.4875   -5.0515   -3.0377 H   0  0  0  0  0  0  0  0  0  0  0  0
   15.0235   -4.5926   -3.9036 H   0  0  0  0  0  0  0  0  0  0  0  0
   15.0092   -4.6884   -2.1445 H   0  0  0  0  0  0  0  0  0  0  0  0
   11.3009   -0.6229   -7.1376 H   0  0  0  0  0  0  0  0  0  0  0  0
   12.6718    0.4526   -7.4646 H   0  0  0  0  0  0  0  0  0  0  0  0
   11.5669    0.7958   -6.1233 H   0  0  0  0  0  0  0  0  0  0  0  0
   13.1657    0.3929   -3.8895 H   0  0  0  0  0  0  0  0  0  0  0  0
   12.7863   -1.5564   -0.7710 H   0  0  0  0  0  0  0  0  0  0  0  0
   14.1881   -2.1619    0.1436 H   0  0  0  0  0  0  0  0  0  0  0  0
   12.1704   -0.0396    0.8479 H   0  0  0  0  0  0  0  0  0  0  0  0
   12.6019   -0.7211    2.8869 H   0  0  0  0  0  0  0  0  0  0  0  0
   15.0119    0.3516    1.8227 H   0  0  0  0  0  0  0  0  0  0  0  0
   13.7488    1.5680    1.6387 H   0  0  0  0  0  0  0  0  0  0  0  0
   16.6471    3.0851   -2.9091 H   0  0  0  0  0  0  0  0  0  0  0  0
   17.4338    2.0065   -4.9352 H   0  0  0  0  0  0  0  0  0  0  0  0
   16.6685    0.1245   -8.7973 H   0  0  0  0  0  0  0  0  0  0  0  0
   13.6596    2.7612   -6.8207 H   0  0  0  0  0  0  0  0  0  0  0  0
   12.8639    3.8254   -4.7646 H   0  0  0  0  0  0  0  0  0  0  0  0
   11.7831    7.6338   -4.2252 H   0  0  0  0  0  0  0  0  0  0  0  0
   13.0420    8.8624   -4.2965 H   0  0  0  0  0  0  0  0  0  0  0  0
   12.1306    8.4707   -6.5545 H   0  0  0  0  0  0  0  0  0  0  0  0
   12.4235    6.7421   -6.4095 H   0  0  0  0  0  0  0  0  0  0  0  0
  1 40  1  0  0  0  0
  1 41  1  0  0  0  0
  1  2  1  0  0  0  0
  1 39  1  0  0  0  0
  2 42  1  0  0  0  0
  2 43  1  0  0  0  0
  2  3  1  0  0  0  0
  3 44  1  0  0  0  0
  3 45  1  0  0  0  0
  3  4  1  0  0  0  0
  4 38  1  0  0  0  0
  4  5  1  0  0  0  0
  5  6  2  0  0  0  0
  5  7  1  0  0  0  0
  7 46  1  0  0  0  0
  7 47  1  0  0  0  0
  8  7  1  0  0  0  0
  8 48  1  0  0  0  0
  8 30  1  0  0  0  0
  8  9  1  0  0  0  0
  9 49  1  0  0  0  0
  9 10  1  0  0  0  0
 10 11  2  0  0  0  0
 12 10  1  0  0  0  0
 12 50  1  0  0  0  0
 12 29  1  0  0  0  0
 12 13  1  0  0  0  0
 13 26  1  0  0  0  0
 13 14  1  0  0  0  0
 14 15  2  0  0  0  0
 16 14  1  0  0  0  0
 16 51  1  0  0  0  0
 16 17  1  0  0  0  0
 16 20  1  0  0  0  0
 17 52  1  0  0  0  0
 17 19  1  0  0  0  0
 17 18  1  0  0  0  0
 18 53  1  0  0  0  0
 18 54  1  0  0  0  0
 18 55  1  0  0  0  0
 19 56  1  0  0  0  0
 19 57  1  0  0  0  0
 19 58  1  0  0  0  0
 20 25  2  0  0  0  0
 20 21  1  0  0  0  0
 21 22  1  0  0  0  0
 22 23  2  0  0  0  0
 23 25  1  0  0  0  0
 23 24  1  0  0  0  0
 24 59  1  0  0  0  0
 24 60  1  0  0  0  0
 24 61  1  0  0  0  0
 25 62  1  0  0  0  0
 27 26  1  0  0  0  0
 26 63  1  0  0  0  0
 26 64  1  0  0  0  0
 27 29  1  0  0  0  0
 27 65  1  0  0  0  0
 27 28  1  0  0  0  0
 28 66  1  0  0  0  0
 29 67  1  0  0  0  0
 29 68  1  0  0  0  0
 30 31  1  0  0  0  0
 30 37  2  0  0  0  0
 31 69  1  0  0  0  0
 31 32  2  0  0  0  0
 32 70  1  0  0  0  0
 32 33  1  0  0  0  0
 33 34  1  0  0  0  0
 33 36  2  0  0  0  0
 34 35  3  0  0  0  0
 35 71  1  0  0  0  0
 36 72  1  0  0  0  0
 36 37  1  0  0  0  0
 37 73  1  0  0  0  0
 38 74  1  0  0  0  0
 38 75  1  0  0  0  0
 38 39  1  0  0  0  0
 39 76  1  0  0  0  0
 39 77  1  0  0  0  0
M  ZZC   1 c1
M  ZZC   2 c2
M  ZZC   3 c3
M  ZZC   4 n1
M  ZZC   5 c4
M  ZZC   6 o1
M  ZZC   7 c5
M  ZZC   8 c6
M  ZZC   9 n2
M  ZZC  10 c7
M  ZZC  11 o2
M  ZZC  12 c8
M  ZZC  13 n3
M  ZZC  14 c9
M  ZZC  15 o3
M  ZZC  16 c10
M  ZZC  17 c11
M  ZZC  18 c12
M  ZZC  19 c13
M  ZZC  20 c14
M  ZZC  21 o4
M  ZZC  22 n4
M  ZZC  23 c15
M  ZZC  24 c16
M  ZZC  25 c17
M  ZZC  26 c18
M  ZZC  27 c19
M  ZZC  28 o5
M  ZZC  29 c20
M  ZZC  30 c21
M  ZZC  31 c22
M  ZZC  32 c23
M  ZZC  33 c24
M  ZZC  34 c25
M  ZZC  35 c26
M  ZZC  36 c27
M  ZZC  37 c28
M  ZZC  38 c29
M  ZZC  39 c30
M  ZZC  40 h11
M  ZZC  41 h12
M  ZZC  42 h21
M  ZZC  43 h22
M  ZZC  44 h31
M  ZZC  45 h32
M  ZZC  46 h51
M  ZZC  47 h52
M  ZZC  48 h61
M  ZZC  49 h01
M  ZZC  50 h81
M  ZZC  51 h101
M  ZZC  52 h111
M  ZZC  53 h121
M  ZZC  54 h122
M  ZZC  55 h123
M  ZZC  56 h131
M  ZZC  57 h132
M  ZZC  58 h133
M  ZZC  59 h161
M  ZZC  60 h162
M  ZZC  61 h163
M  ZZC  62 h171
M  ZZC  63 h181
M  ZZC  64 h182
M  ZZC  65 h191
M  ZZC  66 h02
M  ZZC  67 h201
M  ZZC  68 h202
M  ZZC  69 h221
M  ZZC  70 h231
M  ZZC  71 h261
M  ZZC  72 h271
M  ZZC  73 h281
M  ZZC  74 h291
M  ZZC  75 h292
M  ZZC  76 h301
M  ZZC  77 h302
M  ZZM   1 1
M  ZZI   1 112
M  ZZM   2 1
M  ZZI   2 112
M  ZZM   3 1
M  ZZI   3 112
M  ZZM   4 10
M  ZZI   4 192
M  ZZM   5 3
M  ZZI   5 121
M  ZZM   6 7
M  ZZI   6 81
M  ZZM   7 1
M  ZZI   7 112
M  ZZM   8 1
M  ZZI   8 113
M  ZZM   9 10
M  ZZI   9 211
M  ZZM  10 3
M  ZZI  10 121
M  ZZM  11 7
M  ZZI  11 81
M  ZZM  12 1
M  ZZI  12 113
M  ZZM  13 10
M  ZZI  13 192
M  ZZM  14 3
M  ZZI  14 121
M  ZZM  15 7
M  ZZI  15 81
M  ZZM  16 1
M  ZZI  16 113
M  ZZM  17 1
M  ZZI  17 113
M  ZZM  18 1
M  ZZI  18 111
M  ZZM  19 1
M  ZZI  19 111
M  ZZM  20 63
M  ZZI  20 104
M  ZZM  21 59
M  ZZI  21 56
M  ZZM  22 65
M  ZZI  22 207
M  ZZM  23 64
M  ZZI  23 105
M  ZZM  24 1
M  ZZI  24 111
M  ZZM  25 64
M  ZZI  25 105
M  ZZM  26 1
M  ZZI  26 112
M  ZZM  27 1
M  ZZI  27 113
M  ZZM  28 6
M  ZZI  28 60
M  ZZM  29 1
M  ZZI  29 112
M  ZZM  30 37
M  ZZI  30 124
M  ZZM  31 37
M  ZZI  31 125
M  ZZM  32 37
M  ZZI  32 125
M  ZZM  33 37
M  ZZI  33 124
M  ZZM  34 4
M  ZZI  34 130
M  ZZM  35 4
M  ZZI  35 130
M  ZZM  36 37
M  ZZI  36 125
M  ZZM  37 37
M  ZZI  37 125
M  ZZM  38 1
M  ZZI  38 112
M  ZZM  39 1
M  ZZI  39 112
M  ZZM  40 5
M  ZZI  40 1
M  ZZM  41 5
M  ZZI  41 1
M  ZZM  42 5
M  ZZI  42 1
M  ZZM  43 5
M  ZZI  43 1
M  ZZM  44 5
M  ZZI  44 1
M  ZZM  45 5
M  ZZI  45 1
M  ZZM  46 5
M  ZZI  46 1
M  ZZM  47 5
M  ZZI  47 1
M  ZZM  48 5
M  ZZI  48 1
M  ZZM  49 28
M  ZZI  49 11
M  ZZM  50 5
M  ZZI  50 1
M  ZZM  51 5
M  ZZI  51 1
M  ZZM  52 5
M  ZZI  52 1
M  ZZM  53 5
M  ZZI  53 1
M  ZZM  54 5
M  ZZI  54 1
M  ZZM  55 5
M  ZZI  55 1
M  ZZM  56 5
M  ZZI  56 1
M  ZZM  57 5
M  ZZI  57 1
M  ZZM  58 5
M  ZZI  58 1
M  ZZM  59 5
M  ZZI  59 1
M  ZZM  60 5
M  ZZI  60 1
M  ZZM  61 5
M  ZZI  61 1
M  ZZM  62 5
M  ZZI  62 1
M  ZZM  63 5
M  ZZI  63 1
M  ZZM  64 5
M  ZZI  64 1
M  ZZM  65 5
M  ZZI  65 1
M  ZZM  66 21
M  ZZI  66 20
M  ZZM  67 5
M  ZZI  67 1
M  ZZM  68 5
M  ZZI  68 1
M  ZZM  69 5
M  ZZI  69 1
M  ZZM  70 5
M  ZZI  70 1
M  ZZM  71 5
M  ZZI  71 1
M  ZZM  72 5
M  ZZI  72 1
M  ZZM  73 5
M  ZZI  73 1
M  ZZM  74 5
M  ZZI  74 1
M  ZZM  75 5
M  ZZI  75 1
M  ZZM  76 5
M  ZZI  76 1
M  ZZM  77 5
M  ZZI  77 1
M  END
> <IX>
1

> <NAME>
VHL_5T8E_21.pdb

> <Score>
-11.931684

> <Natom>
77

> <Nflex>
11

> <Hbond>
-4.370576

> <Hphob>
-7.974691

> <VwInt>
-26.488663

> <Dsolv>
17.94765

> <SolEl>
8.626718

> <Eintl>
8.672012

> <RecConf>
ND

> <projPath>
VHL_maps/

> <NAME_>
VHL_5T8E_21.pdb

$$$$
