VHL_5T8E_55.pdb
  MOLSOFT 04032206463D

 84 88  0  0  1  0  0  0  0  0999 V2000
   14.2320    6.6771   -8.6644 C   0  0  0  0  0  0  0  0  0  0  0  0
   13.5572    5.4006   -8.2022 C   0  0  0  0  0  0  0  0  0  0  0  0
   13.9608    5.0547   -6.7747 C   0  0  0  0  0  0  0  0  0  0  0  0
   15.4043    5.0019   -6.5911 N   0  0  0  0  0  0  0  0  0  0  0  0
   15.9046    4.0386   -5.7061 C   0  0  0  0  0  0  0  0  0  0  0  0
   15.1882    3.2710   -5.0777 O   0  0  0  0  0  0  0  0  0  0  0  0
   17.4069    3.9214   -5.5712 C   0  0  0  0  0  0  0  0  0  0  0  0
   17.9536    3.1365   -6.7737 C   0  0  2  0  0  0  0  0  0  0  0  0
   17.5104    1.7485   -6.6586 N   0  0  0  0  0  0  0  0  0  0  0  0
   16.4763    1.2258   -7.4157 C   0  0  0  0  0  0  0  0  0  0  0  0
   15.9621    1.8483   -8.3364 O   0  0  0  0  0  0  0  0  0  0  0  0
   16.1402   -0.2474   -7.1349 C   0  0  1  0  0  0  0  0  0  0  0  0
   15.9957   -0.6307   -5.7288 N   0  0  0  0  0  0  0  0  0  0  0  0
   17.0819   -0.9968   -4.9295 C   0  0  0  0  0  0  0  0  0  0  0  0
   18.2358   -0.8163   -5.2989 O   0  0  0  0  0  0  0  0  0  0  0  0
   16.7535   -1.6720   -3.5902 C   0  0  2  0  0  0  0  0  0  0  0  0
   17.7927   -1.3473   -2.4895 C   0  0  0  0  0  0  0  0  0  0  0  0
   17.4557   -2.0397   -1.1652 C   0  0  0  0  0  0  0  0  0  0  0  0
   17.9001    0.1603   -2.2459 C   0  0  0  0  0  0  0  0  0  0  0  0
   16.6695   -3.1434   -3.8559 C   0  0  0  0  0  0  0  0  0  0  0  0
   15.6682   -3.8211   -3.2244 O   0  0  0  0  0  0  0  0  0  0  0  0
   15.7387   -5.1755   -3.5646 N   0  0  0  0  0  0  0  0  0  0  0  0
   16.7796   -5.2810   -4.4010 C   0  0  0  0  0  0  0  0  0  0  0  0
   17.1612   -6.5929   -4.9692 C   0  0  0  0  0  0  0  0  0  0  0  0
   17.3913   -4.0280   -4.6221 C   0  0  0  0  0  0  0  0  0  0  0  0
   14.5924   -0.8086   -5.3809 C   0  0  0  0  0  0  0  0  0  0  0  0
   13.8072   -0.3927   -6.6110 C   0  0  2  0  0  0  0  0  0  0  0  0
   12.6428   -1.2051   -6.7779 O   0  0  0  0  0  0  0  0  0  0  0  0
   14.7974   -0.6251   -7.7365 C   0  0  0  0  0  0  0  0  0  0  0  0
   19.4593    3.2647   -6.9470 C   0  0  0  0  0  0  0  0  0  0  0  0
   20.0828    4.5143   -6.9433 C   0  0  0  0  0  0  0  0  0  0  0  0
   21.4435    4.6534   -7.1567 C   0  0  0  0  0  0  0  0  0  0  0  0
   22.2371    3.5452   -7.4085 C   0  0  0  0  0  0  0  0  0  0  0  0
   23.6695    3.6830   -7.6360 C   0  0  0  0  0  0  0  0  0  0  0  0
   24.6678    4.2023   -6.8216 C   0  0  0  0  0  0  0  0  0  0  0  0
   24.5088    4.7624   -5.4596 C   0  0  0  0  0  0  0  0  0  0  0  0
   25.9381    4.1659   -7.3589 N   0  0  0  0  0  0  0  0  0  0  0  0
   25.8974    3.6381   -8.5610 C   0  0  0  0  0  0  0  0  0  0  0  0
   24.3590    3.1594   -9.1232 S   0  0  0  0  0  0  0  0  0  0  0  0
   21.6227    2.3014   -7.4312 C   0  0  0  0  0  0  0  0  0  0  0  0
   20.2658    2.1615   -7.2125 C   0  0  0  0  0  0  0  0  0  0  0  0
   16.1558    6.1430   -7.1206 C   0  0  0  0  0  0  0  0  0  0  0  0
   15.7371    6.5268   -8.5338 C   0  0  0  0  0  0  0  0  0  0  0  0
   13.9607    6.8844   -9.7037 H   0  0  0  0  0  0  0  0  0  0  0  0
   13.8826    7.5262   -8.0667 H   0  0  0  0  0  0  0  0  0  0  0  0
   12.4739    5.5181   -8.2711 H   0  0  0  0  0  0  0  0  0  0  0  0
   13.8326    4.5777   -8.8717 H   0  0  0  0  0  0  0  0  0  0  0  0
   13.5744    5.8025   -6.0730 H   0  0  0  0  0  0  0  0  0  0  0  0
   13.5315    4.0875   -6.5018 H   0  0  0  0  0  0  0  0  0  0  0  0
   17.8377    4.9172   -5.4491 H   0  0  0  0  0  0  0  0  0  0  0  0
   17.6272    3.3946   -4.6352 H   0  0  0  0  0  0  0  0  0  0  0  0
   17.5150    3.5391   -7.6931 H   0  0  0  0  0  0  0  0  0  0  0  0
   17.9571    1.1453   -5.9719 H   0  0  0  0  0  0  0  0  0  0  0  0
   16.9395   -0.8392   -7.5911 H   0  0  0  0  0  0  0  0  0  0  0  0
   15.7808   -1.3169   -3.2372 H   0  0  0  0  0  0  0  0  0  0  0  0
   18.7783   -1.7053   -2.7952 H   0  0  0  0  0  0  0  0  0  0  0  0
   18.1693   -1.7585   -0.3848 H   0  0  0  0  0  0  0  0  0  0  0  0
   17.4985   -3.1288   -1.2546 H   0  0  0  0  0  0  0  0  0  0  0  0
   16.4544   -1.7694   -0.8149 H   0  0  0  0  0  0  0  0  0  0  0  0
   18.2262    0.6974   -3.1407 H   0  0  0  0  0  0  0  0  0  0  0  0
   18.6320    0.3765   -1.4615 H   0  0  0  0  0  0  0  0  0  0  0  0
   16.9400    0.5829   -1.9335 H   0  0  0  0  0  0  0  0  0  0  0  0
   16.3729   -6.9758   -5.6244 H   0  0  0  0  0  0  0  0  0  0  0  0
   17.3379   -7.3252   -4.1761 H   0  0  0  0  0  0  0  0  0  0  0  0
   18.0788   -6.5156   -5.5600 H   0  0  0  0  0  0  0  0  0  0  0  0
   18.2455   -3.8058   -5.2463 H   0  0  0  0  0  0  0  0  0  0  0  0
   14.4048   -1.8548   -5.1157 H   0  0  0  0  0  0  0  0  0  0  0  0
   14.3395   -0.1879   -4.5149 H   0  0  0  0  0  0  0  0  0  0  0  0
   13.5115    0.6612   -6.5469 H   0  0  0  0  0  0  0  0  0  0  0  0
   12.1149   -0.8223   -7.5026 H   0  0  0  0  0  0  0  0  0  0  0  0
   14.5359   -0.0437   -8.6204 H   0  0  0  0  0  0  0  0  0  0  0  0
   14.7953   -1.6824   -8.0256 H   0  0  0  0  0  0  0  0  0  0  0  0
   19.5066    5.4197   -6.7890 H   0  0  0  0  0  0  0  0  0  0  0  0
   21.8789    5.6483   -7.1464 H   0  0  0  0  0  0  0  0  0  0  0  0
   23.9154    5.6806   -5.4815 H   0  0  0  0  0  0  0  0  0  0  0  0
   25.4807    5.0031   -5.0191 H   0  0  0  0  0  0  0  0  0  0  0  0
   24.0171    4.0451   -4.7974 H   0  0  0  0  0  0  0  0  0  0  0  0
   26.7844    3.5127   -9.1652 H   0  0  0  0  0  0  0  0  0  0  0  0
   22.1998    1.4079   -7.6319 H   0  0  0  0  0  0  0  0  0  0  0  0
   19.8469    1.1624   -7.2692 H   0  0  0  0  0  0  0  0  0  0  0  0
   15.9824    6.9814   -6.4373 H   0  0  0  0  0  0  0  0  0  0  0  0
   17.2273    5.9489   -7.1130 H   0  0  0  0  0  0  0  0  0  0  0  0
   16.0703    5.7488   -9.2256 H   0  0  0  0  0  0  0  0  0  0  0  0
   16.2325    7.4565   -8.8296 H   0  0  0  0  0  0  0  0  0  0  0  0
  1 44  1  0  0  0  0
  1 45  1  0  0  0  0
  1  2  1  0  0  0  0
  1 43  1  0  0  0  0
  2 46  1  0  0  0  0
  2 47  1  0  0  0  0
  2  3  1  0  0  0  0
  3 48  1  0  0  0  0
  3 49  1  0  0  0  0
  3  4  1  0  0  0  0
  4 42  1  0  0  0  0
  4  5  1  0  0  0  0
  5  6  2  0  0  0  0
  5  7  1  0  0  0  0
  7 50  1  0  0  0  0
  7 51  1  0  0  0  0
  8  7  1  0  0  0  0
  8 52  1  0  0  0  0
  8 30  1  0  0  0  0
  8  9  1  0  0  0  0
  9 53  1  0  0  0  0
  9 10  1  0  0  0  0
 10 11  2  0  0  0  0
 12 10  1  0  0  0  0
 12 54  1  0  0  0  0
 12 29  1  0  0  0  0
 12 13  1  0  0  0  0
 13 26  1  0  0  0  0
 13 14  1  0  0  0  0
 14 15  2  0  0  0  0
 16 14  1  0  0  0  0
 16 55  1  0  0  0  0
 16 17  1  0  0  0  0
 16 20  1  0  0  0  0
 17 56  1  0  0  0  0
 17 19  1  0  0  0  0
 17 18  1  0  0  0  0
 18 57  1  0  0  0  0
 18 58  1  0  0  0  0
 18 59  1  0  0  0  0
 19 60  1  0  0  0  0
 19 61  1  0  0  0  0
 19 62  1  0  0  0  0
 20 25  2  0  0  0  0
 20 21  1  0  0  0  0
 21 22  1  0  0  0  0
 22 23  2  0  0  0  0
 23 25  1  0  0  0  0
 23 24  1  0  0  0  0
 24 63  1  0  0  0  0
 24 64  1  0  0  0  0
 24 65  1  0  0  0  0
 25 66  1  0  0  0  0
 27 26  1  0  0  0  0
 26 67  1  0  0  0  0
 26 68  1  0  0  0  0
 27 29  1  0  0  0  0
 27 69  1  0  0  0  0
 27 28  1  0  0  0  0
 28 70  1  0  0  0  0
 29 71  1  0  0  0  0
 29 72  1  0  0  0  0
 30 31  1  0  0  0  0
 30 41  2  0  0  0  0
 31 73  1  0  0  0  0
 31 32  2  0  0  0  0
 32 74  1  0  0  0  0
 32 33  1  0  0  0  0
 33 40  2  0  0  0  0
 33 34  1  0  0  0  0
 34 35  2  0  0  0  0
 34 39  1  0  0  0  0
 35 36  1  0  0  0  0
 35 37  1  0  0  0  0
 36 75  1  0  0  0  0
 36 76  1  0  0  0  0
 36 77  1  0  0  0  0
 37 38  2  0  0  0  0
 38 78  1  0  0  0  0
 38 39  1  0  0  0  0
 40 79  1  0  0  0  0
 40 41  1  0  0  0  0
 41 80  1  0  0  0  0
 42 81  1  0  0  0  0
 42 82  1  0  0  0  0
 42 43  1  0  0  0  0
 43 83  1  0  0  0  0
 43 84  1  0  0  0  0
M  ZZC   1 c1
M  ZZC   2 c2
M  ZZC   3 c3
M  ZZC   4 n1
M  ZZC   5 c4
M  ZZC   6 o1
M  ZZC   7 c5
M  ZZC   8 c6
M  ZZC   9 n2
M  ZZC  10 c7
M  ZZC  11 o2
M  ZZC  12 c8
M  ZZC  13 n3
M  ZZC  14 c9
M  ZZC  15 o3
M  ZZC  16 c10
M  ZZC  17 c11
M  ZZC  18 c12
M  ZZC  19 c13
M  ZZC  20 c14
M  ZZC  21 o4
M  ZZC  22 n4
M  ZZC  23 c15
M  ZZC  24 c16
M  ZZC  25 c17
M  ZZC  26 c18
M  ZZC  27 c19
M  ZZC  28 o5
M  ZZC  29 c20
M  ZZC  30 c21
M  ZZC  31 c22
M  ZZC  32 c23
M  ZZC  33 c24
M  ZZC  34 c25
M  ZZC  35 c26
M  ZZC  36 c27
M  ZZC  37 n5
M  ZZC  38 c28
M  ZZC  39 s1
M  ZZC  40 c29
M  ZZC  41 c30
M  ZZC  42 c31
M  ZZC  43 c32
M  ZZC  44 h11
M  ZZC  45 h12
M  ZZC  46 h21
M  ZZC  47 h22
M  ZZC  48 h31
M  ZZC  49 h32
M  ZZC  50 h51
M  ZZC  51 h52
M  ZZC  52 h61
M  ZZC  53 h01
M  ZZC  54 h81
M  ZZC  55 h101
M  ZZC  56 h111
M  ZZC  57 h121
M  ZZC  58 h122
M  ZZC  59 h123
M  ZZC  60 h131
M  ZZC  61 h132
M  ZZC  62 h133
M  ZZC  63 h161
M  ZZC  64 h162
M  ZZC  65 h163
M  ZZC  66 h171
M  ZZC  67 h181
M  ZZC  68 h182
M  ZZC  69 h191
M  ZZC  70 h02
M  ZZC  71 h201
M  ZZC  72 h202
M  ZZC  73 h221
M  ZZC  74 h231
M  ZZC  75 h271
M  ZZC  76 h272
M  ZZC  77 h273
M  ZZC  78 h281
M  ZZC  79 h291
M  ZZC  80 h301
M  ZZC  81 h311
M  ZZC  82 h312
M  ZZC  83 h321
M  ZZC  84 h322
M  ZZM   1 1
M  ZZI   1 112
M  ZZM   2 1
M  ZZI   2 112
M  ZZM   3 1
M  ZZI   3 112
M  ZZM   4 10
M  ZZI   4 192
M  ZZM   5 3
M  ZZI   5 121
M  ZZM   6 7
M  ZZI   6 81
M  ZZM   7 1
M  ZZI   7 112
M  ZZM   8 1
M  ZZI   8 113
M  ZZM   9 10
M  ZZI   9 211
M  ZZM  10 3
M  ZZI  10 121
M  ZZM  11 7
M  ZZI  11 81
M  ZZM  12 1
M  ZZI  12 113
M  ZZM  13 10
M  ZZI  13 192
M  ZZM  14 3
M  ZZI  14 121
M  ZZM  15 7
M  ZZI  15 81
M  ZZM  16 1
M  ZZI  16 113
M  ZZM  17 1
M  ZZI  17 113
M  ZZM  18 1
M  ZZI  18 111
M  ZZM  19 1
M  ZZI  19 111
M  ZZM  20 63
M  ZZI  20 104
M  ZZM  21 59
M  ZZI  21 56
M  ZZM  22 65
M  ZZI  22 207
M  ZZM  23 64
M  ZZI  23 105
M  ZZM  24 1
M  ZZI  24 111
M  ZZM  25 64
M  ZZI  25 105
M  ZZM  26 1
M  ZZI  26 112
M  ZZM  27 1
M  ZZI  27 113
M  ZZM  28 6
M  ZZI  28 60
M  ZZM  29 1
M  ZZI  29 112
M  ZZM  30 37
M  ZZI  30 124
M  ZZM  31 37
M  ZZI  31 125
M  ZZM  32 37
M  ZZI  32 125
M  ZZM  33 37
M  ZZI  33 124
M  ZZM  34 63
M  ZZI  34 104
M  ZZM  35 64
M  ZZI  35 105
M  ZZM  36 1
M  ZZI  36 111
M  ZZM  37 66
M  ZZI  37 222
M  ZZM  38 63
M  ZZI  38 104
M  ZZM  39 44
M  ZZI  39 248
M  ZZM  40 37
M  ZZI  40 125
M  ZZM  41 37
M  ZZI  41 125
M  ZZM  42 1
M  ZZI  42 112
M  ZZM  43 1
M  ZZI  43 112
M  ZZM  44 5
M  ZZI  44 1
M  ZZM  45 5
M  ZZI  45 1
M  ZZM  46 5
M  ZZI  46 1
M  ZZM  47 5
M  ZZI  47 1
M  ZZM  48 5
M  ZZI  48 1
M  ZZM  49 5
M  ZZI  49 1
M  ZZM  50 5
M  ZZI  50 1
M  ZZM  51 5
M  ZZI  51 1
M  ZZM  52 5
M  ZZI  52 1
M  ZZM  53 28
M  ZZI  53 11
M  ZZM  54 5
M  ZZI  54 1
M  ZZM  55 5
M  ZZI  55 1
M  ZZM  56 5
M  ZZI  56 1
M  ZZM  57 5
M  ZZI  57 1
M  ZZM  58 5
M  ZZI  58 1
M  ZZM  59 5
M  ZZI  59 1
M  ZZM  60 5
M  ZZI  60 1
M  ZZM  61 5
M  ZZI  61 1
M  ZZM  62 5
M  ZZI  62 1
M  ZZM  63 5
M  ZZI  63 1
M  ZZM  64 5
M  ZZI  64 1
M  ZZM  65 5
M  ZZI  65 1
M  ZZM  66 5
M  ZZI  66 1
M  ZZM  67 5
M  ZZI  67 1
M  ZZM  68 5
M  ZZI  68 1
M  ZZM  69 5
M  ZZI  69 1
M  ZZM  70 21
M  ZZI  70 20
M  ZZM  71 5
M  ZZI  71 1
M  ZZM  72 5
M  ZZI  72 1
M  ZZM  73 5
M  ZZI  73 1
M  ZZM  74 5
M  ZZI  74 1
M  ZZM  75 5
M  ZZI  75 1
M  ZZM  76 5
M  ZZI  76 1
M  ZZM  77 5
M  ZZI  77 1
M  ZZM  78 5
M  ZZI  78 1
M  ZZM  79 5
M  ZZI  79 1
M  ZZM  80 5
M  ZZI  80 1
M  ZZM  81 5
M  ZZI  81 1
M  ZZM  82 5
M  ZZI  82 1
M  ZZM  83 5
M  ZZI  83 1
M  ZZM  84 5
M  ZZI  84 1
M  END
> <IX>
1

> <NAME>
VHL_5T8E_55.pdb

> <Score>
-12.113846

> <Natom>
84

> <Nflex>
11

> <Hbond>
-4.787526

> <Hphob>
-7.291523

> <VwInt>
-35.734366

> <Dsolv>
21.850456

> <SolEl>
22.367454

> <Eintl>
4.779868

> <RecConf>
ND

> <projPath>
VHL_maps/

> <NAME_>
VHL_5T8E_55.pdb

$$$$
