VHL_6UT0_4.pdb
  MOLSOFT 04032206433D

 65 67  0  0  1  0  0  0  0  0999 V2000
   17.2843   -6.2319   -4.3786 C   0  0  0  0  0  0  0  0  0  0  0  0
   16.4504   -5.1220   -3.7920 C   0  0  0  0  0  0  0  0  0  0  0  0
   15.3441   -5.3224   -3.3149 O   0  0  0  0  0  0  0  0  0  0  0  0
   17.0397   -3.8787   -3.8736 N   0  0  0  0  0  0  0  0  0  0  0  0
   16.3037   -2.6502   -3.5621 C   0  0  1  0  0  0  0  0  0  0  0  0
   16.5789   -2.0800   -2.1372 C   0  0  0  0  0  0  0  0  0  0  0  0
   16.3362   -3.1622   -1.0713 C   0  0  0  0  0  0  0  0  0  0  0  0
   18.0145   -1.5581   -1.9758 C   0  0  0  0  0  0  0  0  0  0  0  0
   15.6100   -0.9226   -1.8488 C   0  0  0  0  0  0  0  0  0  0  0  0
   16.6645   -1.6851   -4.7094 C   0  0  0  0  0  0  0  0  0  0  0  0
   17.8345   -1.4495   -4.9884 O   0  0  0  0  0  0  0  0  0  0  0  0
   15.6079   -1.1431   -5.4401 N   0  0  0  0  0  0  0  0  0  0  0  0
   15.8482   -0.3684   -6.6486 C   0  0  2  0  0  0  0  0  0  0  0  0
   16.1869    1.0871   -6.3166 C   0  0  0  0  0  0  0  0  0  0  0  0
   15.5112    1.7705   -5.5589 O   0  0  0  0  0  0  0  0  0  0  0  0
   17.3157    1.5531   -6.9626 N   0  0  0  0  0  0  0  0  0  0  0  0
   17.8007    2.9067   -6.7503 C   0  0  0  0  0  0  0  0  0  0  0  0
   19.2351    3.1275   -7.1684 C   0  0  0  0  0  0  0  0  0  0  0  0
   19.6788    4.4035   -7.5100 C   0  0  0  0  0  0  0  0  0  0  0  0
   21.0050    4.6377   -7.8449 C   0  0  0  0  0  0  0  0  0  0  0  0
   21.9253    3.5973   -7.8457 C   0  0  0  0  0  0  0  0  0  0  0  0
   23.3241    3.8160   -8.1761 C   0  0  0  0  0  0  0  0  0  0  0  0
   24.3880    4.2033   -7.3738 C   0  0  0  0  0  0  0  0  0  0  0  0
   24.3369    4.5411   -5.9334 C   0  0  0  0  0  0  0  0  0  0  0  0
   25.6122    4.2500   -8.0101 N   0  0  0  0  0  0  0  0  0  0  0  0
   25.4648    3.9284   -9.2757 C   0  0  0  0  0  0  0  0  0  0  0  0
   23.8774    3.5593   -9.7818 S   0  0  0  0  0  0  0  0  0  0  0  0
   21.4853    2.3285   -7.5025 C   0  0  0  0  0  0  0  0  0  0  0  0
   20.1682    2.0972   -7.1607 C   0  0  0  0  0  0  0  0  0  0  0  0
   14.5386   -0.4635   -7.4116 C   0  0  0  0  0  0  0  0  0  0  0  0
   13.4794   -0.5924   -6.3270 C   0  0  1  0  0  0  0  0  0  0  0  0
   12.3467   -1.3222   -6.7976 O   0  0  0  0  0  0  0  0  0  0  0  0
   14.1889   -1.3733   -5.2327 C   0  0  0  0  0  0  0  0  0  0  0  0
   18.2630   -5.8749   -4.7119 H   0  0  0  0  0  0  0  0  0  0  0  0
   16.7576   -6.6562   -5.2389 H   0  0  0  0  0  0  0  0  0  0  0  0
   17.4362   -7.0099   -3.6273 H   0  0  0  0  0  0  0  0  0  0  0  0
   17.9872   -3.8002   -4.2330 H   0  0  0  0  0  0  0  0  0  0  0  0
   15.2434   -2.9077   -3.6189 H   0  0  0  0  0  0  0  0  0  0  0  0
   16.4375   -2.7567   -0.0594 H   0  0  0  0  0  0  0  0  0  0  0  0
   17.0512   -3.9859   -1.1542 H   0  0  0  0  0  0  0  0  0  0  0  0
   15.3281   -3.5828   -1.1486 H   0  0  0  0  0  0  0  0  0  0  0  0
   18.2273   -1.2871   -0.9369 H   0  0  0  0  0  0  0  0  0  0  0  0
   18.1967   -0.6622   -2.5764 H   0  0  0  0  0  0  0  0  0  0  0  0
   18.7477   -2.3105   -2.2697 H   0  0  0  0  0  0  0  0  0  0  0  0
   15.7390   -0.1050   -2.5656 H   0  0  0  0  0  0  0  0  0  0  0  0
   15.7725   -0.5040   -0.8499 H   0  0  0  0  0  0  0  0  0  0  0  0
   14.5647   -1.2410   -1.9104 H   0  0  0  0  0  0  0  0  0  0  0  0
   16.6682   -0.8185   -7.2202 H   0  0  0  0  0  0  0  0  0  0  0  0
   17.8247    0.9325   -7.5862 H   0  0  0  0  0  0  0  0  0  0  0  0
   17.1370    3.5658   -7.3208 H   0  0  0  0  0  0  0  0  0  0  0  0
   17.6900    3.1580   -5.6899 H   0  0  0  0  0  0  0  0  0  0  0  0
   18.9842    5.2385   -7.5124 H   0  0  0  0  0  0  0  0  0  0  0  0
   21.3166    5.6444   -8.1072 H   0  0  0  0  0  0  0  0  0  0  0  0
   25.3054    4.9070   -5.5804 H   0  0  0  0  0  0  0  0  0  0  0  0
   24.0787    3.6612   -5.3401 H   0  0  0  0  0  0  0  0  0  0  0  0
   23.5936    5.3198   -5.7397 H   0  0  0  0  0  0  0  0  0  0  0  0
   26.2960    3.8997   -9.9656 H   0  0  0  0  0  0  0  0  0  0  0  0
   22.1736    1.4923   -7.5053 H   0  0  0  0  0  0  0  0  0  0  0  0
   19.8785    1.0884   -6.8884 H   0  0  0  0  0  0  0  0  0  0  0  0
   14.3512    0.3898   -8.0721 H   0  0  0  0  0  0  0  0  0  0  0  0
   14.5473   -1.3652   -8.0327 H   0  0  0  0  0  0  0  0  0  0  0  0
   13.1517    0.3872   -5.9616 H   0  0  0  0  0  0  0  0  0  0  0  0
   11.9025   -0.7891   -7.4822 H   0  0  0  0  0  0  0  0  0  0  0  0
   13.9812   -2.4459   -5.2971 H   0  0  0  0  0  0  0  0  0  0  0  0
   13.8941   -1.0321   -4.2364 H   0  0  0  0  0  0  0  0  0  0  0  0
  1 34  1  0  0  0  0
  1 35  1  0  0  0  0
  1 36  1  0  0  0  0
  1  2  1  0  0  0  0
  2  3  2  0  0  0  0
  2  4  1  0  0  0  0
  4 37  1  0  0  0  0
  5  4  1  0  0  0  0
  5 38  1  0  0  0  0
  5  6  1  0  0  0  0
  5 10  1  0  0  0  0
  6  7  1  0  0  0  0
  6  8  1  0  0  0  0
  6  9  1  0  0  0  0
  7 39  1  0  0  0  0
  7 40  1  0  0  0  0
  7 41  1  0  0  0  0
  8 42  1  0  0  0  0
  8 43  1  0  0  0  0
  8 44  1  0  0  0  0
  9 45  1  0  0  0  0
  9 46  1  0  0  0  0
  9 47  1  0  0  0  0
 10 11  2  0  0  0  0
 10 12  1  0  0  0  0
 12 33  1  0  0  0  0
 13 12  1  0  0  0  0
 13 30  1  0  0  0  0
 13 48  1  0  0  0  0
 13 14  1  0  0  0  0
 14 15  2  0  0  0  0
 14 16  1  0  0  0  0
 16 49  1  0  0  0  0
 16 17  1  0  0  0  0
 17 50  1  0  0  0  0
 17 51  1  0  0  0  0
 17 18  1  0  0  0  0
 18 19  1  0  0  0  0
 18 29  2  0  0  0  0
 19 52  1  0  0  0  0
 19 20  2  0  0  0  0
 20 53  1  0  0  0  0
 20 21  1  0  0  0  0
 21 28  2  0  0  0  0
 21 22  1  0  0  0  0
 22 23  2  0  0  0  0
 22 27  1  0  0  0  0
 23 24  1  0  0  0  0
 23 25  1  0  0  0  0
 24 54  1  0  0  0  0
 24 55  1  0  0  0  0
 24 56  1  0  0  0  0
 25 26  2  0  0  0  0
 26 57  1  0  0  0  0
 26 27  1  0  0  0  0
 28 58  1  0  0  0  0
 28 29  1  0  0  0  0
 29 59  1  0  0  0  0
 31 30  1  0  0  0  0
 30 60  1  0  0  0  0
 30 61  1  0  0  0  0
 31 33  1  0  0  0  0
 31 62  1  0  0  0  0
 31 32  1  0  0  0  0
 32 63  1  0  0  0  0
 33 64  1  0  0  0  0
 33 65  1  0  0  0  0
M  ZZC   1 c1
M  ZZC   2 c2
M  ZZC   3 o1
M  ZZC   4 n1
M  ZZC   5 c3
M  ZZC   6 c4
M  ZZC   7 c5
M  ZZC   8 c6
M  ZZC   9 c7
M  ZZC  10 c8
M  ZZC  11 o2
M  ZZC  12 n2
M  ZZC  13 c9
M  ZZC  14 c10
M  ZZC  15 o3
M  ZZC  16 n3
M  ZZC  17 c11
M  ZZC  18 c12
M  ZZC  19 c13
M  ZZC  20 c14
M  ZZC  21 c15
M  ZZC  22 c16
M  ZZC  23 c17
M  ZZC  24 c18
M  ZZC  25 n4
M  ZZC  26 c19
M  ZZC  27 s1
M  ZZC  28 c20
M  ZZC  29 c21
M  ZZC  30 c22
M  ZZC  31 c23
M  ZZC  32 o4
M  ZZC  33 c24
M  ZZC  34 h11
M  ZZC  35 h12
M  ZZC  36 h13
M  ZZC  37 h01
M  ZZC  38 h31
M  ZZC  39 h51
M  ZZC  40 h52
M  ZZC  41 h53
M  ZZC  42 h61
M  ZZC  43 h62
M  ZZC  44 h63
M  ZZC  45 h71
M  ZZC  46 h72
M  ZZC  47 h73
M  ZZC  48 h91
M  ZZC  49 h02
M  ZZC  50 h111
M  ZZC  51 h112
M  ZZC  52 h131
M  ZZC  53 h141
M  ZZC  54 h181
M  ZZC  55 h182
M  ZZC  56 h183
M  ZZC  57 h191
M  ZZC  58 h201
M  ZZC  59 h211
M  ZZC  60 h221
M  ZZC  61 h222
M  ZZC  62 h231
M  ZZC  63 h41
M  ZZC  64 h241
M  ZZC  65 h242
M  ZZM   1 1
M  ZZI   1 111
M  ZZM   2 3
M  ZZI   2 121
M  ZZM   3 7
M  ZZI   3 81
M  ZZM   4 10
M  ZZI   4 211
M  ZZM   5 1
M  ZZI   5 113
M  ZZM   6 1
M  ZZI   6 110
M  ZZM   7 1
M  ZZI   7 111
M  ZZM   8 1
M  ZZI   8 111
M  ZZM   9 1
M  ZZI   9 111
M  ZZM  10 3
M  ZZI  10 121
M  ZZM  11 7
M  ZZI  11 81
M  ZZM  12 10
M  ZZI  12 192
M  ZZM  13 1
M  ZZI  13 113
M  ZZM  14 3
M  ZZI  14 121
M  ZZM  15 7
M  ZZI  15 81
M  ZZM  16 10
M  ZZI  16 211
M  ZZM  17 1
M  ZZI  17 112
M  ZZM  18 37
M  ZZI  18 124
M  ZZM  19 37
M  ZZI  19 125
M  ZZM  20 37
M  ZZI  20 125
M  ZZM  21 37
M  ZZI  21 124
M  ZZM  22 63
M  ZZI  22 104
M  ZZM  23 64
M  ZZI  23 105
M  ZZM  24 1
M  ZZI  24 111
M  ZZM  25 66
M  ZZI  25 222
M  ZZM  26 63
M  ZZI  26 104
M  ZZM  27 44
M  ZZI  27 248
M  ZZM  28 37
M  ZZI  28 125
M  ZZM  29 37
M  ZZI  29 125
M  ZZM  30 1
M  ZZI  30 112
M  ZZM  31 1
M  ZZI  31 113
M  ZZM  32 6
M  ZZI  32 60
M  ZZM  33 1
M  ZZI  33 112
M  ZZM  34 5
M  ZZI  34 1
M  ZZM  35 5
M  ZZI  35 1
M  ZZM  36 5
M  ZZI  36 1
M  ZZM  37 28
M  ZZI  37 11
M  ZZM  38 5
M  ZZI  38 1
M  ZZM  39 5
M  ZZI  39 1
M  ZZM  40 5
M  ZZI  40 1
M  ZZM  41 5
M  ZZI  41 1
M  ZZM  42 5
M  ZZI  42 1
M  ZZM  43 5
M  ZZI  43 1
M  ZZM  44 5
M  ZZI  44 1
M  ZZM  45 5
M  ZZI  45 1
M  ZZM  46 5
M  ZZI  46 1
M  ZZM  47 5
M  ZZI  47 1
M  ZZM  48 5
M  ZZI  48 1
M  ZZM  49 28
M  ZZI  49 11
M  ZZM  50 5
M  ZZI  50 1
M  ZZM  51 5
M  ZZI  51 1
M  ZZM  52 5
M  ZZI  52 1
M  ZZM  53 5
M  ZZI  53 1
M  ZZM  54 5
M  ZZI  54 1
M  ZZM  55 5
M  ZZI  55 1
M  ZZM  56 5
M  ZZI  56 1
M  ZZM  57 5
M  ZZI  57 1
M  ZZM  58 5
M  ZZI  58 1
M  ZZM  59 5
M  ZZI  59 1
M  ZZM  60 5
M  ZZI  60 1
M  ZZM  61 5
M  ZZI  61 1
M  ZZM  62 5
M  ZZI  62 1
M  ZZM  63 21
M  ZZI  63 20
M  ZZM  64 5
M  ZZI  64 1
M  ZZM  65 5
M  ZZI  65 1
M  END
> <IX>
1

> <NAME>
VHL_6UT0_4.pdb

> <Score>
-15.882098

> <Natom>
65

> <Nflex>
8

> <Hbond>
-4.888575

> <Hphob>
-6.271589

> <VwInt>
-32.165844

> <Dsolv>
17.45453

> <SolEl>
18.442543

> <Eintl>
4.651383

> <RecConf>
ND

> <projPath>
VHL_maps/

> <NAME_>
VHL_6UT0_4.pdb

$$$$
