VHL_1ERR_9.pdb
  MOLSOFT 04032206353D

 68 70  0  0  1  0  0  0  0  0999 V2000
   16.0833   -6.2865   -5.6273 O   0  0  0  0  0  0  0  0  0  0  0  0
   17.1783   -5.8762   -5.2778 C   0  0  0  0  0  0  0  0  0  0  0  0
   17.4193   -4.6299   -4.7276 N   0  0  0  0  0  0  0  0  0  0  0  0
   16.3917   -3.6047   -4.5078 C   0  0  1  0  0  0  0  0  0  0  0  0
   15.8062   -3.6326   -3.0587 C   0  0  0  0  0  0  0  0  0  0  0  0
   16.8076   -3.1198   -2.0127 C   0  0  0  0  0  0  0  0  0  0  0  0
   15.3992   -5.0565   -2.6532 C   0  0  0  0  0  0  0  0  0  0  0  0
   14.5372   -2.7723   -2.9895 C   0  0  0  0  0  0  0  0  0  0  0  0
   17.0242   -2.2463   -4.8878 C   0  0  0  0  0  0  0  0  0  0  0  0
   18.1226   -1.9268   -4.4575 O   0  0  0  0  0  0  0  0  0  0  0  0
   16.3052   -1.3679   -5.7064 N   0  0  0  0  0  0  0  0  0  0  0  0
   16.8228   -0.0299   -6.0097 C   0  0  2  0  0  0  0  0  0  0  0  0
   16.7751    0.9461   -4.8301 C   0  0  0  0  0  0  0  0  0  0  0  0
   17.5747    1.8664   -4.7385 O   0  0  0  0  0  0  0  0  0  0  0  0
   15.6664    0.8155   -4.0124 N   0  0  0  0  0  0  0  0  0  0  0  0
   15.3618    1.7389   -2.9294 C   0  0  1  0  0  0  0  0  0  0  0  0
   14.2722    2.7139   -3.3770 C   0  0  0  0  0  0  0  0  0  0  0  0
   15.0430    0.9751   -1.6569 C   0  0  0  0  0  0  0  0  0  0  0  0
   16.0944    0.4849   -0.8861 C   0  0  0  0  0  0  0  0  0  0  0  0
   15.8656   -0.2329    0.2747 C   0  0  0  0  0  0  0  0  0  0  0  0
   14.5705   -0.4908    0.7034 C   0  0  0  0  0  0  0  0  0  0  0  0
   14.3215   -1.2452    1.9219 C   0  0  0  0  0  0  0  0  0  0  0  0
   13.7595   -0.8550    3.1301 C   0  0  0  0  0  0  0  0  0  0  0  0
   13.3193    0.5085    3.5105 C   0  0  0  0  0  0  0  0  0  0  0  0
   13.6383   -1.8611    4.0690 N   0  0  0  0  0  0  0  0  0  0  0  0
   14.1237   -2.9805    3.5821 C   0  0  0  0  0  0  0  0  0  0  0  0
   14.7543   -2.9061    1.9973 S   0  0  0  0  0  0  0  0  0  0  0  0
   13.5140   -0.0123   -0.0598 C   0  0  0  0  0  0  0  0  0  0  0  0
   13.7439    0.7084   -1.2207 C   0  0  0  0  0  0  0  0  0  0  0  0
   15.9198    0.5082   -7.1178 C   0  0  0  0  0  0  0  0  0  0  0  0
   15.3308   -0.7284   -7.7630 C   0  0  1  0  0  0  0  0  0  0  0  0
   16.1749   -1.1859   -8.8294 O   0  0  0  0  0  0  0  0  0  0  0  0
   15.2574   -1.7468   -6.6326 C   0  0  0  0  0  0  0  0  0  0  0  0
   18.4066   -6.7370   -5.3960 C   0  0  0  0  0  0  0  0  0  0  0  0
   18.3669   -4.4103   -4.4462 H   0  0  0  0  0  0  0  0  0  0  0  0
   15.5838   -3.8235   -5.1943 H   0  0  0  0  0  0  0  0  0  0  0  0
   17.7535   -3.6624   -2.0618 H   0  0  0  0  0  0  0  0  0  0  0  0
   16.4186   -3.2371   -0.9966 H   0  0  0  0  0  0  0  0  0  0  0  0
   17.0320   -2.0589   -2.1461 H   0  0  0  0  0  0  0  0  0  0  0  0
   14.6757   -5.4739   -3.3551 H   0  0  0  0  0  0  0  0  0  0  0  0
   14.9303   -5.0728   -1.6648 H   0  0  0  0  0  0  0  0  0  0  0  0
   16.2557   -5.7341   -2.6071 H   0  0  0  0  0  0  0  0  0  0  0  0
   13.7824   -3.1117   -3.7059 H   0  0  0  0  0  0  0  0  0  0  0  0
   14.7465   -1.7264   -3.2056 H   0  0  0  0  0  0  0  0  0  0  0  0
   14.0819   -2.8059   -1.9946 H   0  0  0  0  0  0  0  0  0  0  0  0
   17.8618   -0.1302   -6.3418 H   0  0  0  0  0  0  0  0  0  0  0  0
   15.0209    0.0567   -4.1930 H   0  0  0  0  0  0  0  0  0  0  0  0
   16.2542    2.3438   -2.7333 H   0  0  0  0  0  0  0  0  0  0  0  0
   14.6118    3.3083   -4.2312 H   0  0  0  0  0  0  0  0  0  0  0  0
   13.9969    3.4062   -2.5747 H   0  0  0  0  0  0  0  0  0  0  0  0
   13.3667    2.1912   -3.7002 H   0  0  0  0  0  0  0  0  0  0  0  0
   17.1215    0.6581   -1.1961 H   0  0  0  0  0  0  0  0  0  0  0  0
   16.7165   -0.5927    0.8459 H   0  0  0  0  0  0  0  0  0  0  0  0
   14.1831    1.1273    3.7690 H   0  0  0  0  0  0  0  0  0  0  0  0
   12.6560    0.4777    4.3800 H   0  0  0  0  0  0  0  0  0  0  0  0
   12.7793    1.0027    2.6980 H   0  0  0  0  0  0  0  0  0  0  0  0
   14.1304   -3.9007    4.1484 H   0  0  0  0  0  0  0  0  0  0  0  0
   12.4918   -0.2097    0.2476 H   0  0  0  0  0  0  0  0  0  0  0  0
   12.8845    1.0579   -1.7822 H   0  0  0  0  0  0  0  0  0  0  0  0
   15.1125    1.1253   -6.7073 H   0  0  0  0  0  0  0  0  0  0  0  0
   16.4819    1.1280   -7.8245 H   0  0  0  0  0  0  0  0  0  0  0  0
   14.3442   -0.5289   -8.1812 H   0  0  0  0  0  0  0  0  0  0  0  0
   17.1000   -1.0988   -8.5329 H   0  0  0  0  0  0  0  0  0  0  0  0
   15.4138   -2.7659   -6.9962 H   0  0  0  0  0  0  0  0  0  0  0  0
   14.3077   -1.6791   -6.0914 H   0  0  0  0  0  0  0  0  0  0  0  0
   18.3818   -7.2710   -6.3500 H   0  0  0  0  0  0  0  0  0  0  0  0
   18.4118   -7.4616   -4.5781 H   0  0  0  0  0  0  0  0  0  0  0  0
   19.3223   -6.1396   -5.3611 H   0  0  0  0  0  0  0  0  0  0  0  0
  1  2  2  0  0  0  0
  2  3  1  0  0  0  0
  2 34  1  0  0  0  0
  4  3  1  0  0  0  0
  3 35  1  0  0  0  0
  4  5  1  0  0  0  0
  4 36  1  0  0  0  0
  4  9  1  0  0  0  0
  5  6  1  0  0  0  0
  5  7  1  0  0  0  0
  5  8  1  0  0  0  0
  6 37  1  0  0  0  0
  6 38  1  0  0  0  0
  6 39  1  0  0  0  0
  7 40  1  0  0  0  0
  7 41  1  0  0  0  0
  7 42  1  0  0  0  0
  8 43  1  0  0  0  0
  8 44  1  0  0  0  0
  8 45  1  0  0  0  0
  9 10  2  0  0  0  0
  9 11  1  0  0  0  0
 11 33  1  0  0  0  0
 12 11  1  0  0  0  0
 12 30  1  0  0  0  0
 12 46  1  0  0  0  0
 12 13  1  0  0  0  0
 13 14  2  0  0  0  0
 13 15  1  0  0  0  0
 15 47  1  0  0  0  0
 16 15  1  0  0  0  0
 16 48  1  0  0  0  0
 16 17  1  0  0  0  0
 16 18  1  0  0  0  0
 17 49  1  0  0  0  0
 17 50  1  0  0  0  0
 17 51  1  0  0  0  0
 18 19  1  0  0  0  0
 18 29  2  0  0  0  0
 19 52  1  0  0  0  0
 19 20  2  0  0  0  0
 20 53  1  0  0  0  0
 20 21  1  0  0  0  0
 21 28  2  0  0  0  0
 21 22  1  0  0  0  0
 22 23  2  0  0  0  0
 22 27  1  0  0  0  0
 23 24  1  0  0  0  0
 23 25  1  0  0  0  0
 24 54  1  0  0  0  0
 24 55  1  0  0  0  0
 24 56  1  0  0  0  0
 25 26  2  0  0  0  0
 26 57  1  0  0  0  0
 26 27  1  0  0  0  0
 28 58  1  0  0  0  0
 28 29  1  0  0  0  0
 29 59  1  0  0  0  0
 31 30  1  0  0  0  0
 30 60  1  0  0  0  0
 30 61  1  0  0  0  0
 31 33  1  0  0  0  0
 31 62  1  0  0  0  0
 31 32  1  0  0  0  0
 32 63  1  0  0  0  0
 33 64  1  0  0  0  0
 33 65  1  0  0  0  0
 34 66  1  0  0  0  0
 34 67  1  0  0  0  0
 34 68  1  0  0  0  0
M  ZZC   1 o1
M  ZZC   2 c1
M  ZZC   3 n1
M  ZZC   4 c2
M  ZZC   5 c3
M  ZZC   6 c4
M  ZZC   7 c5
M  ZZC   8 c6
M  ZZC   9 c7
M  ZZC  10 o2
M  ZZC  11 n2
M  ZZC  12 c8
M  ZZC  13 c9
M  ZZC  14 o3
M  ZZC  15 n3
M  ZZC  16 c10
M  ZZC  17 c11
M  ZZC  18 c12
M  ZZC  19 c13
M  ZZC  20 c14
M  ZZC  21 c15
M  ZZC  22 c16
M  ZZC  23 c17
M  ZZC  24 c18
M  ZZC  25 n4
M  ZZC  26 c19
M  ZZC  27 s1
M  ZZC  28 c20
M  ZZC  29 c21
M  ZZC  30 c22
M  ZZC  31 c23
M  ZZC  32 o4
M  ZZC  33 c24
M  ZZC  34 c25
M  ZZC  35 h11
M  ZZC  36 h21
M  ZZC  37 h41
M  ZZC  38 h42
M  ZZC  39 h43
M  ZZC  40 h51
M  ZZC  41 h52
M  ZZC  42 h53
M  ZZC  43 h61
M  ZZC  44 h62
M  ZZC  45 h63
M  ZZC  46 h81
M  ZZC  47 h31
M  ZZC  48 h101
M  ZZC  49 h111
M  ZZC  50 h112
M  ZZC  51 h113
M  ZZC  52 h131
M  ZZC  53 h141
M  ZZC  54 h181
M  ZZC  55 h182
M  ZZC  56 h183
M  ZZC  57 h191
M  ZZC  58 h201
M  ZZC  59 h211
M  ZZC  60 h221
M  ZZC  61 h222
M  ZZC  62 h231
M  ZZC  63 h01
M  ZZC  64 h241
M  ZZC  65 h242
M  ZZC  66 h251
M  ZZC  67 h252
M  ZZC  68 h253
M  ZZM   1 7
M  ZZI   1 81
M  ZZM   2 3
M  ZZI   2 121
M  ZZM   3 10
M  ZZI   3 211
M  ZZM   4 1
M  ZZI   4 113
M  ZZM   5 1
M  ZZI   5 110
M  ZZM   6 1
M  ZZI   6 111
M  ZZM   7 1
M  ZZI   7 111
M  ZZM   8 1
M  ZZI   8 111
M  ZZM   9 3
M  ZZI   9 121
M  ZZM  10 7
M  ZZI  10 81
M  ZZM  11 10
M  ZZI  11 192
M  ZZM  12 1
M  ZZI  12 113
M  ZZM  13 3
M  ZZI  13 121
M  ZZM  14 7
M  ZZI  14 81
M  ZZM  15 10
M  ZZI  15 211
M  ZZM  16 1
M  ZZI  16 113
M  ZZM  17 1
M  ZZI  17 111
M  ZZM  18 37
M  ZZI  18 124
M  ZZM  19 37
M  ZZI  19 125
M  ZZM  20 37
M  ZZI  20 125
M  ZZM  21 37
M  ZZI  21 124
M  ZZM  22 63
M  ZZI  22 104
M  ZZM  23 64
M  ZZI  23 105
M  ZZM  24 1
M  ZZI  24 111
M  ZZM  25 66
M  ZZI  25 222
M  ZZM  26 63
M  ZZI  26 104
M  ZZM  27 44
M  ZZI  27 248
M  ZZM  28 37
M  ZZI  28 125
M  ZZM  29 37
M  ZZI  29 125
M  ZZM  30 1
M  ZZI  30 112
M  ZZM  31 1
M  ZZI  31 113
M  ZZM  32 6
M  ZZI  32 60
M  ZZM  33 1
M  ZZI  33 112
M  ZZM  34 1
M  ZZI  34 111
M  ZZM  35 28
M  ZZI  35 11
M  ZZM  36 5
M  ZZI  36 1
M  ZZM  37 5
M  ZZI  37 1
M  ZZM  38 5
M  ZZI  38 1
M  ZZM  39 5
M  ZZI  39 1
M  ZZM  40 5
M  ZZI  40 1
M  ZZM  41 5
M  ZZI  41 1
M  ZZM  42 5
M  ZZI  42 1
M  ZZM  43 5
M  ZZI  43 1
M  ZZM  44 5
M  ZZI  44 1
M  ZZM  45 5
M  ZZI  45 1
M  ZZM  46 5
M  ZZI  46 1
M  ZZM  47 28
M  ZZI  47 11
M  ZZM  48 5
M  ZZI  48 1
M  ZZM  49 5
M  ZZI  49 1
M  ZZM  50 5
M  ZZI  50 1
M  ZZM  51 5
M  ZZI  51 1
M  ZZM  52 5
M  ZZI  52 1
M  ZZM  53 5
M  ZZI  53 1
M  ZZM  54 5
M  ZZI  54 1
M  ZZM  55 5
M  ZZI  55 1
M  ZZM  56 5
M  ZZI  56 1
M  ZZM  57 5
M  ZZI  57 1
M  ZZM  58 5
M  ZZI  58 1
M  ZZM  59 5
M  ZZI  59 1
M  ZZM  60 5
M  ZZI  60 1
M  ZZM  61 5
M  ZZI  61 1
M  ZZM  62 5
M  ZZI  62 1
M  ZZM  63 21
M  ZZI  63 20
M  ZZM  64 5
M  ZZI  64 1
M  ZZM  65 5
M  ZZI  65 1
M  ZZM  66 5
M  ZZI  66 1
M  ZZM  67 5
M  ZZI  67 1
M  ZZM  68 5
M  ZZI  68 1
M  END
> <IX>
1

> <NAME>
VHL_1ERR_9.pdb

> <Score>
-26.599579

> <Natom>
68

> <Nflex>
8

> <Hbond>
-7.480561

> <Hphob>
-6.822252

> <VwInt>
-28.486389

> <Dsolv>
17.159507

> <SolEl>
7.682569

> <Eintl>
4.405685

> <RecConf>
ND

> <projPath>
VHL_maps/

> <NAME_>
VHL_1ERR_9.pdb

$$$$
