VHL_4MKC_5.pdb
  MOLSOFT 04032206393D

 65 67  0  0  1  0  0  0  0  0999 V2000
   20.1189    4.1947   -7.6534 C   0  0  0  0  0  0  0  0  0  0  0  0
   18.7157    3.7740   -7.3116 C   0  0  0  0  0  0  0  0  0  0  0  0
   17.7596    4.0762   -8.0111 O   0  0  0  0  0  0  0  0  0  0  0  0
   18.6621    3.0009   -6.1692 N   0  0  0  0  0  0  0  0  0  0  0  0
   17.4276    2.4112   -5.6452 C   0  0  2  0  0  0  0  0  0  0  0  0
   17.2076    2.7697   -4.1424 C   0  0  0  0  0  0  0  0  0  0  0  0
   17.2209    4.2975   -3.9711 C   0  0  0  0  0  0  0  0  0  0  0  0
   18.2927    2.1811   -3.2205 C   0  0  0  0  0  0  0  0  0  0  0  0
   15.8400    2.2594   -3.6629 C   0  0  0  0  0  0  0  0  0  0  0  0
   17.5603    0.9006   -5.8943 C   0  0  0  0  0  0  0  0  0  0  0  0
   18.6020    0.3164   -5.6151 O   0  0  0  0  0  0  0  0  0  0  0  0
   16.4729    0.2210   -6.4545 N   0  0  0  0  0  0  0  0  0  0  0  0
   15.1440    0.7047   -6.8624 C   0  0  1  0  0  0  0  0  0  0  0  0
   15.0890    1.6567   -8.0609 C   0  0  0  0  0  0  0  0  0  0  0  0
   15.9655    1.7239   -8.9083 O   0  0  0  0  0  0  0  0  0  0  0  0
   13.9236    2.4025   -8.1096 N   0  0  0  0  0  0  0  0  0  0  0  0
   13.7130    3.4663   -9.0720 C   0  0  0  0  0  0  0  0  0  0  0  0
   13.9281    4.8402   -8.4843 C   0  0  0  0  0  0  0  0  0  0  0  0
   13.5919    5.9704   -9.2205 C   0  0  0  0  0  0  0  0  0  0  0  0
   13.7274    7.2397   -8.6896 C   0  0  0  0  0  0  0  0  0  0  0  0
   14.2266    7.4228   -7.4057 C   0  0  0  0  0  0  0  0  0  0  0  0
   14.3321    8.7482   -6.8143 C   0  0  0  0  0  0  0  0  0  0  0  0
   13.8593    9.2384   -5.6030 C   0  0  0  0  0  0  0  0  0  0  0  0
   13.1104    8.4895   -4.5649 C   0  0  0  0  0  0  0  0  0  0  0  0
   14.0935   10.5841   -5.3881 N   0  0  0  0  0  0  0  0  0  0  0  0
   14.7941   11.0745   -6.3866 C   0  0  0  0  0  0  0  0  0  0  0  0
   15.1888    9.9862   -7.6415 S   0  0  0  0  0  0  0  0  0  0  0  0
   14.6123    6.3011   -6.6873 C   0  0  0  0  0  0  0  0  0  0  0  0
   14.4608    5.0338   -7.2131 C   0  0  0  0  0  0  0  0  0  0  0  0
   14.3842   -0.5648   -7.2470 C   0  0  0  0  0  0  0  0  0  0  0  0
   15.4896   -1.5386   -7.6215 C   0  0  1  0  0  0  0  0  0  0  0  0
   15.9834   -1.2638   -8.9431 O   0  0  0  0  0  0  0  0  0  0  0  0
   16.5403   -1.2187   -6.5784 C   0  0  0  0  0  0  0  0  0  0  0  0
   20.6548    4.4521   -6.7358 H   0  0  0  0  0  0  0  0  0  0  0  0
   20.1089    5.0631   -8.3196 H   0  0  0  0  0  0  0  0  0  0  0  0
   20.6356    3.3741   -8.1593 H   0  0  0  0  0  0  0  0  0  0  0  0
   19.5362    2.7192   -5.7360 H   0  0  0  0  0  0  0  0  0  0  0  0
   16.6006    2.8059   -6.2367 H   0  0  0  0  0  0  0  0  0  0  0  0
   18.1986    4.7289   -4.2078 H   0  0  0  0  0  0  0  0  0  0  0  0
   16.9851    4.5881   -2.9420 H   0  0  0  0  0  0  0  0  0  0  0  0
   16.4829    4.7764   -4.6197 H   0  0  0  0  0  0  0  0  0  0  0  0
   18.2715    1.0875   -3.2049 H   0  0  0  0  0  0  0  0  0  0  0  0
   18.1524    2.5095   -2.1857 H   0  0  0  0  0  0  0  0  0  0  0  0
   19.2986    2.4917   -3.5180 H   0  0  0  0  0  0  0  0  0  0  0  0
   15.6606    2.5206   -2.6150 H   0  0  0  0  0  0  0  0  0  0  0  0
   15.7723    1.1690   -3.7368 H   0  0  0  0  0  0  0  0  0  0  0  0
   15.0193    2.6701   -4.2589 H   0  0  0  0  0  0  0  0  0  0  0  0
   14.6686    1.1979   -6.0098 H   0  0  0  0  0  0  0  0  0  0  0  0
   13.1878    2.2498   -7.4282 H   0  0  0  0  0  0  0  0  0  0  0  0
   14.3736    3.3218   -9.9303 H   0  0  0  0  0  0  0  0  0  0  0  0
   12.6787    3.3724   -9.4175 H   0  0  0  0  0  0  0  0  0  0  0  0
   13.2059    5.8726  -10.2275 H   0  0  0  0  0  0  0  0  0  0  0  0
   13.4185    8.0882   -9.2906 H   0  0  0  0  0  0  0  0  0  0  0  0
   12.0950    8.2725   -4.9065 H   0  0  0  0  0  0  0  0  0  0  0  0
   13.0119    9.0621   -3.6403 H   0  0  0  0  0  0  0  0  0  0  0  0
   13.6096    7.5441   -4.3318 H   0  0  0  0  0  0  0  0  0  0  0  0
   15.1026   12.1095   -6.4245 H   0  0  0  0  0  0  0  0  0  0  0  0
   15.0354    6.4032   -5.6939 H   0  0  0  0  0  0  0  0  0  0  0  0
   14.7581    4.1938   -6.5979 H   0  0  0  0  0  0  0  0  0  0  0  0
   13.8375   -0.9449   -6.3761 H   0  0  0  0  0  0  0  0  0  0  0  0
   13.6668   -0.4100   -8.0586 H   0  0  0  0  0  0  0  0  0  0  0  0
   15.1687   -2.5818   -7.5861 H   0  0  0  0  0  0  0  0  0  0  0  0
   16.8002   -0.7327   -8.8477 H   0  0  0  0  0  0  0  0  0  0  0  0
   17.5497   -1.5370   -6.8315 H   0  0  0  0  0  0  0  0  0  0  0  0
   16.2776   -1.6464   -5.6039 H   0  0  0  0  0  0  0  0  0  0  0  0
  1 34  1  0  0  0  0
  1 35  1  0  0  0  0
  1 36  1  0  0  0  0
  1  2  1  0  0  0  0
  2  3  2  0  0  0  0
  2  4  1  0  0  0  0
  4 37  1  0  0  0  0
  5  4  1  0  0  0  0
  5 38  1  0  0  0  0
  5  6  1  0  0  0  0
  5 10  1  0  0  0  0
  6  7  1  0  0  0  0
  6  8  1  0  0  0  0
  6  9  1  0  0  0  0
  7 39  1  0  0  0  0
  7 40  1  0  0  0  0
  7 41  1  0  0  0  0
  8 42  1  0  0  0  0
  8 43  1  0  0  0  0
  8 44  1  0  0  0  0
  9 45  1  0  0  0  0
  9 46  1  0  0  0  0
  9 47  1  0  0  0  0
 10 11  2  0  0  0  0
 10 12  1  0  0  0  0
 12 33  1  0  0  0  0
 13 12  1  0  0  0  0
 13 30  1  0  0  0  0
 13 48  1  0  0  0  0
 13 14  1  0  0  0  0
 14 15  2  0  0  0  0
 14 16  1  0  0  0  0
 16 49  1  0  0  0  0
 16 17  1  0  0  0  0
 17 50  1  0  0  0  0
 17 51  1  0  0  0  0
 17 18  1  0  0  0  0
 18 19  1  0  0  0  0
 18 29  2  0  0  0  0
 19 52  1  0  0  0  0
 19 20  2  0  0  0  0
 20 53  1  0  0  0  0
 20 21  1  0  0  0  0
 21 28  2  0  0  0  0
 21 22  1  0  0  0  0
 22 23  2  0  0  0  0
 22 27  1  0  0  0  0
 23 24  1  0  0  0  0
 23 25  1  0  0  0  0
 24 54  1  0  0  0  0
 24 55  1  0  0  0  0
 24 56  1  0  0  0  0
 25 26  2  0  0  0  0
 26 57  1  0  0  0  0
 26 27  1  0  0  0  0
 28 58  1  0  0  0  0
 28 29  1  0  0  0  0
 29 59  1  0  0  0  0
 31 30  1  0  0  0  0
 30 60  1  0  0  0  0
 30 61  1  0  0  0  0
 31 33  1  0  0  0  0
 31 62  1  0  0  0  0
 31 32  1  0  0  0  0
 32 63  1  0  0  0  0
 33 64  1  0  0  0  0
 33 65  1  0  0  0  0
M  ZZC   1 c1
M  ZZC   2 c2
M  ZZC   3 o1
M  ZZC   4 n1
M  ZZC   5 c3
M  ZZC   6 c4
M  ZZC   7 c5
M  ZZC   8 c6
M  ZZC   9 c7
M  ZZC  10 c8
M  ZZC  11 o2
M  ZZC  12 n2
M  ZZC  13 c9
M  ZZC  14 c10
M  ZZC  15 o3
M  ZZC  16 n3
M  ZZC  17 c11
M  ZZC  18 c12
M  ZZC  19 c13
M  ZZC  20 c14
M  ZZC  21 c15
M  ZZC  22 c16
M  ZZC  23 c17
M  ZZC  24 c18
M  ZZC  25 n4
M  ZZC  26 c19
M  ZZC  27 s1
M  ZZC  28 c20
M  ZZC  29 c21
M  ZZC  30 c22
M  ZZC  31 c23
M  ZZC  32 o4
M  ZZC  33 c24
M  ZZC  34 h11
M  ZZC  35 h12
M  ZZC  36 h13
M  ZZC  37 h01
M  ZZC  38 h31
M  ZZC  39 h51
M  ZZC  40 h52
M  ZZC  41 h53
M  ZZC  42 h61
M  ZZC  43 h62
M  ZZC  44 h63
M  ZZC  45 h71
M  ZZC  46 h72
M  ZZC  47 h73
M  ZZC  48 h91
M  ZZC  49 h02
M  ZZC  50 h111
M  ZZC  51 h112
M  ZZC  52 h131
M  ZZC  53 h141
M  ZZC  54 h181
M  ZZC  55 h182
M  ZZC  56 h183
M  ZZC  57 h191
M  ZZC  58 h201
M  ZZC  59 h211
M  ZZC  60 h221
M  ZZC  61 h222
M  ZZC  62 h231
M  ZZC  63 h41
M  ZZC  64 h241
M  ZZC  65 h242
M  ZZM   1 1
M  ZZI   1 111
M  ZZM   2 3
M  ZZI   2 121
M  ZZM   3 7
M  ZZI   3 81
M  ZZM   4 10
M  ZZI   4 211
M  ZZM   5 1
M  ZZI   5 113
M  ZZM   6 1
M  ZZI   6 110
M  ZZM   7 1
M  ZZI   7 111
M  ZZM   8 1
M  ZZI   8 111
M  ZZM   9 1
M  ZZI   9 111
M  ZZM  10 3
M  ZZI  10 121
M  ZZM  11 7
M  ZZI  11 81
M  ZZM  12 10
M  ZZI  12 192
M  ZZM  13 1
M  ZZI  13 113
M  ZZM  14 3
M  ZZI  14 121
M  ZZM  15 7
M  ZZI  15 81
M  ZZM  16 10
M  ZZI  16 211
M  ZZM  17 1
M  ZZI  17 112
M  ZZM  18 37
M  ZZI  18 124
M  ZZM  19 37
M  ZZI  19 125
M  ZZM  20 37
M  ZZI  20 125
M  ZZM  21 37
M  ZZI  21 124
M  ZZM  22 63
M  ZZI  22 104
M  ZZM  23 64
M  ZZI  23 105
M  ZZM  24 1
M  ZZI  24 111
M  ZZM  25 66
M  ZZI  25 222
M  ZZM  26 63
M  ZZI  26 104
M  ZZM  27 44
M  ZZI  27 248
M  ZZM  28 37
M  ZZI  28 125
M  ZZM  29 37
M  ZZI  29 125
M  ZZM  30 1
M  ZZI  30 112
M  ZZM  31 1
M  ZZI  31 113
M  ZZM  32 6
M  ZZI  32 60
M  ZZM  33 1
M  ZZI  33 112
M  ZZM  34 5
M  ZZI  34 1
M  ZZM  35 5
M  ZZI  35 1
M  ZZM  36 5
M  ZZI  36 1
M  ZZM  37 28
M  ZZI  37 11
M  ZZM  38 5
M  ZZI  38 1
M  ZZM  39 5
M  ZZI  39 1
M  ZZM  40 5
M  ZZI  40 1
M  ZZM  41 5
M  ZZI  41 1
M  ZZM  42 5
M  ZZI  42 1
M  ZZM  43 5
M  ZZI  43 1
M  ZZM  44 5
M  ZZI  44 1
M  ZZM  45 5
M  ZZI  45 1
M  ZZM  46 5
M  ZZI  46 1
M  ZZM  47 5
M  ZZI  47 1
M  ZZM  48 5
M  ZZI  48 1
M  ZZM  49 28
M  ZZI  49 11
M  ZZM  50 5
M  ZZI  50 1
M  ZZM  51 5
M  ZZI  51 1
M  ZZM  52 5
M  ZZI  52 1
M  ZZM  53 5
M  ZZI  53 1
M  ZZM  54 5
M  ZZI  54 1
M  ZZM  55 5
M  ZZI  55 1
M  ZZM  56 5
M  ZZI  56 1
M  ZZM  57 5
M  ZZI  57 1
M  ZZM  58 5
M  ZZI  58 1
M  ZZM  59 5
M  ZZI  59 1
M  ZZM  60 5
M  ZZI  60 1
M  ZZM  61 5
M  ZZI  61 1
M  ZZM  62 5
M  ZZI  62 1
M  ZZM  63 21
M  ZZI  63 20
M  ZZM  64 5
M  ZZI  64 1
M  ZZM  65 5
M  ZZI  65 1
M  END
> <IX>
1

> <NAME>
VHL_4MKC_5.pdb

> <Score>
-17.716862

> <Natom>
65

> <Nflex>
8

> <Hbond>
-9.903843

> <Hphob>
-5.540526

> <VwInt>
-24.552721

> <Dsolv>
21.113676

> <SolEl>
15.662755

> <Eintl>
7.720101

> <RecConf>
ND

> <projPath>
VHL_maps/

> <NAME_>
VHL_4MKC_5.pdb

$$$$
