VHL_4IM0_28.pdb
  MOLSOFT 04032206363D

 56 58  0  0  1  0  0  0  0  0999 V2000
   12.2084    0.3427   -6.7093 C   0  0  0  0  0  0  0  0  0  0  0  0
   13.2991   -0.6811   -6.5821 C   0  0  0  0  0  0  0  0  0  0  0  0
   13.1198   -1.8507   -6.8773 O   0  0  0  0  0  0  0  0  0  0  0  0
   14.4755   -0.1786   -6.0724 N   0  0  0  0  0  0  0  0  0  0  0  0
   15.6101   -1.0545   -5.7883 C   0  0  2  0  0  0  0  0  0  0  0  0
   15.3626   -1.6992   -4.4176 C   0  0  0  0  0  0  0  0  0  0  0  0
   14.7334   -1.1133   -3.5447 O   0  0  0  0  0  0  0  0  0  0  0  0
   15.9144   -2.9598   -4.1919 N   0  0  0  0  0  0  0  0  0  0  0  0
   15.6508   -3.6668   -2.9520 C   0  0  2  0  0  0  0  0  0  0  0  0
   16.5885   -3.2132   -1.8339 C   0  0  0  0  0  0  0  0  0  0  0  0
   17.7161   -2.7831   -2.0342 O   0  0  0  0  0  0  0  0  0  0  0  0
   16.0550   -3.3954   -0.5744 N   0  0  0  0  0  0  0  0  0  0  0  0
   16.7810   -3.0176    0.6197 C   0  0  0  0  0  0  0  0  0  0  0  0
   15.9069   -3.0956    1.8430 C   0  0  0  0  0  0  0  0  0  0  0  0
   14.8079   -2.2538    1.9833 C   0  0  0  0  0  0  0  0  0  0  0  0
   13.9848   -2.3381    3.0926 C   0  0  0  0  0  0  0  0  0  0  0  0
   14.2424   -3.2666    4.0960 C   0  0  0  0  0  0  0  0  0  0  0  0
   13.3838   -3.3648    5.2668 C   0  0  0  0  0  0  0  0  0  0  0  0
   12.6566   -4.4368    5.7672 C   0  0  0  0  0  0  0  0  0  0  0  0
   12.5353   -5.7886    5.1736 C   0  0  0  0  0  0  0  0  0  0  0  0
   11.9698   -4.1799    6.9368 N   0  0  0  0  0  0  0  0  0  0  0  0
   12.1695   -2.9338    7.3031 C   0  0  0  0  0  0  0  0  0  0  0  0
   13.1796   -2.0004    6.2919 S   0  0  0  0  0  0  0  0  0  0  0  0
   15.3497   -4.0977    3.9633 C   0  0  0  0  0  0  0  0  0  0  0  0
   16.1729   -4.0122    2.8540 C   0  0  0  0  0  0  0  0  0  0  0  0
   15.8575   -5.1276   -3.2946 C   0  0  0  0  0  0  0  0  0  0  0  0
   16.8756   -5.1238   -4.4267 C   0  0  1  0  0  0  0  0  0  0  0  0
   16.6063   -6.1916   -5.3386 O   0  0  0  0  0  0  0  0  0  0  0  0
   16.7264   -3.7583   -5.0940 C   0  0  0  0  0  0  0  0  0  0  0  0
   16.9157   -0.2705   -5.7850 C   0  0  0  0  0  0  0  0  0  0  0  0
   12.5882    1.2226   -7.2382 H   0  0  0  0  0  0  0  0  0  0  0  0
   11.8546    0.6248   -5.7145 H   0  0  0  0  0  0  0  0  0  0  0  0
   11.3750   -0.0788   -7.2785 H   0  0  0  0  0  0  0  0  0  0  0  0
   14.5099    0.7885   -5.7675 H   0  0  0  0  0  0  0  0  0  0  0  0
   15.6364   -1.8217   -6.5679 H   0  0  0  0  0  0  0  0  0  0  0  0
   14.6171   -3.4832   -2.6350 H   0  0  0  0  0  0  0  0  0  0  0  0
   15.1333   -3.8061   -0.4704 H   0  0  0  0  0  0  0  0  0  0  0  0
   17.6435   -3.6883    0.7042 H   0  0  0  0  0  0  0  0  0  0  0  0
   17.1758   -2.0033    0.4951 H   0  0  0  0  0  0  0  0  0  0  0  0
   14.5789   -1.5223    1.2131 H   0  0  0  0  0  0  0  0  0  0  0  0
   13.1296   -1.6713    3.1610 H   0  0  0  0  0  0  0  0  0  0  0  0
   11.8149   -6.3983    5.7264 H   0  0  0  0  0  0  0  0  0  0  0  0
   13.4956   -6.3120    5.1883 H   0  0  0  0  0  0  0  0  0  0  0  0
   12.1846   -5.7256    4.1401 H   0  0  0  0  0  0  0  0  0  0  0  0
   11.7228   -2.5154    8.1936 H   0  0  0  0  0  0  0  0  0  0  0  0
   15.5841   -4.8277    4.7328 H   0  0  0  0  0  0  0  0  0  0  0  0
   17.0251   -4.6821    2.7807 H   0  0  0  0  0  0  0  0  0  0  0  0
   16.1933   -5.7325   -2.4483 H   0  0  0  0  0  0  0  0  0  0  0  0
   14.9142   -5.5604   -3.6342 H   0  0  0  0  0  0  0  0  0  0  0  0
   17.8907   -5.2499   -4.0425 H   0  0  0  0  0  0  0  0  0  0  0  0
   16.5311   -7.0119   -4.8165 H   0  0  0  0  0  0  0  0  0  0  0  0
   16.2706   -3.8023   -6.0837 H   0  0  0  0  0  0  0  0  0  0  0  0
   17.7000   -3.2701   -5.2009 H   0  0  0  0  0  0  0  0  0  0  0  0
   17.7722   -0.9240   -5.6005 H   0  0  0  0  0  0  0  0  0  0  0  0
   16.9171    0.4978   -5.0051 H   0  0  0  0  0  0  0  0  0  0  0  0
   17.0716    0.2325   -6.7445 H   0  0  0  0  0  0  0  0  0  0  0  0
  1 31  1  0  0  0  0
  1 32  1  0  0  0  0
  1 33  1  0  0  0  0
  1  2  1  0  0  0  0
  2  3  2  0  0  0  0
  2  4  1  0  0  0  0
  4 34  1  0  0  0  0
  5  4  1  0  0  0  0
  5 35  1  0  0  0  0
  5 30  1  0  0  0  0
  5  6  1  0  0  0  0
  6  7  2  0  0  0  0
  6  8  1  0  0  0  0
  8 29  1  0  0  0  0
  9  8  1  0  0  0  0
  9 26  1  0  0  0  0
  9 36  1  0  0  0  0
  9 10  1  0  0  0  0
 10 11  2  0  0  0  0
 10 12  1  0  0  0  0
 12 37  1  0  0  0  0
 12 13  1  0  0  0  0
 13 38  1  0  0  0  0
 13 39  1  0  0  0  0
 13 14  1  0  0  0  0
 14 25  2  0  0  0  0
 14 15  1  0  0  0  0
 15 16  2  0  0  0  0
 15 40  1  0  0  0  0
 16 17  1  0  0  0  0
 16 41  1  0  0  0  0
 17 24  2  0  0  0  0
 17 18  1  0  0  0  0
 18 19  2  0  0  0  0
 18 23  1  0  0  0  0
 19 20  1  0  0  0  0
 19 21  1  0  0  0  0
 20 42  1  0  0  0  0
 20 43  1  0  0  0  0
 20 44  1  0  0  0  0
 21 22  2  0  0  0  0
 22 45  1  0  0  0  0
 22 23  1  0  0  0  0
 24 25  1  0  0  0  0
 24 46  1  0  0  0  0
 25 47  1  0  0  0  0
 27 26  1  0  0  0  0
 26 48  1  0  0  0  0
 26 49  1  0  0  0  0
 27 29  1  0  0  0  0
 27 50  1  0  0  0  0
 27 28  1  0  0  0  0
 28 51  1  0  0  0  0
 29 52  1  0  0  0  0
 29 53  1  0  0  0  0
 30 54  1  0  0  0  0
 30 55  1  0  0  0  0
 30 56  1  0  0  0  0
M  ZZC   1 c1
M  ZZC   2 c2
M  ZZC   3 o1
M  ZZC   4 n1
M  ZZC   5 c3
M  ZZC   6 c4
M  ZZC   7 o2
M  ZZC   8 n2
M  ZZC   9 c5
M  ZZC  10 c6
M  ZZC  11 o3
M  ZZC  12 n3
M  ZZC  13 c7
M  ZZC  14 c8
M  ZZC  15 c9
M  ZZC  16 c10
M  ZZC  17 c11
M  ZZC  18 c12
M  ZZC  19 c13
M  ZZC  20 c14
M  ZZC  21 n4
M  ZZC  22 c15
M  ZZC  23 s1
M  ZZC  24 c16
M  ZZC  25 c17
M  ZZC  26 c18
M  ZZC  27 c19
M  ZZC  28 o4
M  ZZC  29 c20
M  ZZC  30 c21
M  ZZC  31 h11
M  ZZC  32 h12
M  ZZC  33 h13
M  ZZC  34 h01
M  ZZC  35 h31
M  ZZC  36 h51
M  ZZC  37 h02
M  ZZC  38 h71
M  ZZC  39 h72
M  ZZC  40 h91
M  ZZC  41 h101
M  ZZC  42 h141
M  ZZC  43 h142
M  ZZC  44 h143
M  ZZC  45 h151
M  ZZC  46 h161
M  ZZC  47 h171
M  ZZC  48 h181
M  ZZC  49 h182
M  ZZC  50 h191
M  ZZC  51 h41
M  ZZC  52 h201
M  ZZC  53 h202
M  ZZC  54 h211
M  ZZC  55 h212
M  ZZC  56 h213
M  ZZM   1 1
M  ZZI   1 111
M  ZZM   2 3
M  ZZI   2 121
M  ZZM   3 7
M  ZZI   3 81
M  ZZM   4 10
M  ZZI   4 211
M  ZZM   5 1
M  ZZI   5 113
M  ZZM   6 3
M  ZZI   6 121
M  ZZM   7 7
M  ZZI   7 81
M  ZZM   8 10
M  ZZI   8 192
M  ZZM   9 1
M  ZZI   9 113
M  ZZM  10 3
M  ZZI  10 121
M  ZZM  11 7
M  ZZI  11 81
M  ZZM  12 10
M  ZZI  12 211
M  ZZM  13 1
M  ZZI  13 112
M  ZZM  14 37
M  ZZI  14 124
M  ZZM  15 37
M  ZZI  15 125
M  ZZM  16 37
M  ZZI  16 125
M  ZZM  17 37
M  ZZI  17 124
M  ZZM  18 63
M  ZZI  18 104
M  ZZM  19 64
M  ZZI  19 105
M  ZZM  20 1
M  ZZI  20 111
M  ZZM  21 66
M  ZZI  21 222
M  ZZM  22 63
M  ZZI  22 104
M  ZZM  23 44
M  ZZI  23 248
M  ZZM  24 37
M  ZZI  24 125
M  ZZM  25 37
M  ZZI  25 125
M  ZZM  26 1
M  ZZI  26 112
M  ZZM  27 1
M  ZZI  27 113
M  ZZM  28 6
M  ZZI  28 60
M  ZZM  29 1
M  ZZI  29 112
M  ZZM  30 1
M  ZZI  30 111
M  ZZM  31 5
M  ZZI  31 1
M  ZZM  32 5
M  ZZI  32 1
M  ZZM  33 5
M  ZZI  33 1
M  ZZM  34 28
M  ZZI  34 11
M  ZZM  35 5
M  ZZI  35 1
M  ZZM  36 5
M  ZZI  36 1
M  ZZM  37 28
M  ZZI  37 11
M  ZZM  38 5
M  ZZI  38 1
M  ZZM  39 5
M  ZZI  39 1
M  ZZM  40 5
M  ZZI  40 1
M  ZZM  41 5
M  ZZI  41 1
M  ZZM  42 5
M  ZZI  42 1
M  ZZM  43 5
M  ZZI  43 1
M  ZZM  44 5
M  ZZI  44 1
M  ZZM  45 5
M  ZZI  45 1
M  ZZM  46 5
M  ZZI  46 1
M  ZZM  47 5
M  ZZI  47 1
M  ZZM  48 5
M  ZZI  48 1
M  ZZM  49 5
M  ZZI  49 1
M  ZZM  50 5
M  ZZI  50 1
M  ZZM  51 21
M  ZZI  51 20
M  ZZM  52 5
M  ZZI  52 1
M  ZZM  53 5
M  ZZI  53 1
M  ZZM  54 5
M  ZZI  54 1
M  ZZM  55 5
M  ZZI  55 1
M  ZZM  56 5
M  ZZI  56 1
M  END
> <IX>
1

> <NAME>
VHL_4IM0_28.pdb

> <Score>
-18.34287

> <Natom>
56

> <Nflex>
7

> <Hbond>
-3.826545

> <Hphob>
-5.677778

> <VwInt>
-27.636965

> <Dsolv>
15.683658

> <SolEl>
7.429409

> <Eintl>
3.188684

> <RecConf>
ND

> <projPath>
VHL_maps/

> <NAME_>
VHL_4IM0_28.pdb

$$$$
