VHL_4IM0_14.pdb
  MOLSOFT 04032206383D

 65 67  0  0  1  0  0  0  0  0999 V2000
   18.0802   -7.0564   -5.1168 C   0  0  0  0  0  0  0  0  0  0  0  0
   16.9374   -6.0815   -5.0824 C   0  0  0  0  0  0  0  0  0  0  0  0
   15.8653   -6.3570   -5.5930 O   0  0  0  0  0  0  0  0  0  0  0  0
   17.2229   -4.9181   -4.3965 N   0  0  0  0  0  0  0  0  0  0  0  0
   16.2797   -3.8032   -4.2333 C   0  0  1  0  0  0  0  0  0  0  0  0
   15.8656   -3.5767   -2.7469 C   0  0  0  0  0  0  0  0  0  0  0  0
   14.7238   -2.5571   -2.6201 C   0  0  0  0  0  0  0  0  0  0  0  0
   17.0328   -3.0766   -1.8834 C   0  0  0  0  0  0  0  0  0  0  0  0
   15.3474   -4.8996   -2.1680 C   0  0  0  0  0  0  0  0  0  0  0  0
   16.9648   -2.5961   -4.8989 C   0  0  0  0  0  0  0  0  0  0  0  0
   18.1661   -2.4008   -4.7727 O   0  0  0  0  0  0  0  0  0  0  0  0
   16.1762   -1.7015   -5.6193 N   0  0  0  0  0  0  0  0  0  0  0  0
   16.7824   -0.5836   -6.3302 C   0  0  2  0  0  0  0  0  0  0  0  0
   17.3210    0.4910   -5.3886 C   0  0  0  0  0  0  0  0  0  0  0  0
   16.8678    0.6834   -4.2681 O   0  0  0  0  0  0  0  0  0  0  0  0
   18.2912    1.2813   -5.9809 N   0  0  0  0  0  0  0  0  0  0  0  0
   18.6535    2.5780   -5.4435 C   0  0  0  0  0  0  0  0  0  0  0  0
   17.6599    3.5918   -5.9439 C   0  0  0  0  0  0  0  0  0  0  0  0
   16.4148    3.6901   -5.3318 C   0  0  0  0  0  0  0  0  0  0  0  0
   15.3919    4.3897   -5.9328 C   0  0  0  0  0  0  0  0  0  0  0  0
   15.6061    5.0431   -7.1362 C   0  0  0  0  0  0  0  0  0  0  0  0
   14.4703    5.6051   -7.8335 C   0  0  0  0  0  0  0  0  0  0  0  0
   13.4486    4.9503   -8.5055 C   0  0  0  0  0  0  0  0  0  0  0  0
   13.3325    3.4921   -8.7472 C   0  0  0  0  0  0  0  0  0  0  0  0
   12.4396    5.7700   -8.9556 N   0  0  0  0  0  0  0  0  0  0  0  0
   12.7452    7.0193   -8.6817 C   0  0  0  0  0  0  0  0  0  0  0  0
   14.2142    7.2976   -7.8648 S   0  0  0  0  0  0  0  0  0  0  0  0
   16.8812    5.0614   -7.6875 C   0  0  0  0  0  0  0  0  0  0  0  0
   17.9002    4.3292   -7.0999 C   0  0  0  0  0  0  0  0  0  0  0  0
   15.6636   -0.0199   -7.2097 C   0  0  0  0  0  0  0  0  0  0  0  0
   14.4014   -0.4568   -6.4853 C   0  0  1  0  0  0  0  0  0  0  0  0
   13.2711   -0.5260   -7.3497 O   0  0  0  0  0  0  0  0  0  0  0  0
   14.7891   -1.8337   -5.9941 C   0  0  0  0  0  0  0  0  0  0  0  0
   19.0380   -6.5340   -5.2018 H   0  0  0  0  0  0  0  0  0  0  0  0
   17.9683   -7.7163   -5.9819 H   0  0  0  0  0  0  0  0  0  0  0  0
   18.0607   -7.6550   -4.2034 H   0  0  0  0  0  0  0  0  0  0  0  0
   18.1727   -4.7828   -4.0679 H   0  0  0  0  0  0  0  0  0  0  0  0
   15.3834   -4.0575   -4.7917 H   0  0  0  0  0  0  0  0  0  0  0  0
   15.0180   -1.5786   -3.0139 H   0  0  0  0  0  0  0  0  0  0  0  0
   14.4405   -2.4015   -1.5749 H   0  0  0  0  0  0  0  0  0  0  0  0
   13.8342   -2.8644   -3.1772 H   0  0  0  0  0  0  0  0  0  0  0  0
   16.7466   -3.0025   -0.8293 H   0  0  0  0  0  0  0  0  0  0  0  0
   17.3742   -2.0841   -2.1931 H   0  0  0  0  0  0  0  0  0  0  0  0
   17.8878   -3.7483   -1.9347 H   0  0  0  0  0  0  0  0  0  0  0  0
   15.0165   -4.7812   -1.1314 H   0  0  0  0  0  0  0  0  0  0  0  0
   16.1256   -5.6671   -2.1769 H   0  0  0  0  0  0  0  0  0  0  0  0
   14.5000   -5.2876   -2.7365 H   0  0  0  0  0  0  0  0  0  0  0  0
   17.6018   -0.9564   -6.9429 H   0  0  0  0  0  0  0  0  0  0  0  0
   18.6604    1.0191   -6.8905 H   0  0  0  0  0  0  0  0  0  0  0  0
   18.6575    2.5426   -4.3484 H   0  0  0  0  0  0  0  0  0  0  0  0
   19.6687    2.8146   -5.7787 H   0  0  0  0  0  0  0  0  0  0  0  0
   16.2049    3.1476   -4.4146 H   0  0  0  0  0  0  0  0  0  0  0  0
   14.4066    4.3861   -5.4740 H   0  0  0  0  0  0  0  0  0  0  0  0
   12.4518    3.2693   -9.3561 H   0  0  0  0  0  0  0  0  0  0  0  0
   13.2282    2.9408   -7.8088 H   0  0  0  0  0  0  0  0  0  0  0  0
   14.2153    3.1081   -9.2651 H   0  0  0  0  0  0  0  0  0  0  0  0
   12.1059    7.8429   -8.9446 H   0  0  0  0  0  0  0  0  0  0  0  0
   17.0758    5.6098   -8.6049 H   0  0  0  0  0  0  0  0  0  0  0  0
   18.8719    4.2927   -7.5837 H   0  0  0  0  0  0  0  0  0  0  0  0
   15.7013    1.0653   -7.3507 H   0  0  0  0  0  0  0  0  0  0  0  0
   15.6973   -0.4677   -8.2103 H   0  0  0  0  0  0  0  0  0  0  0  0
   14.1743    0.2078   -5.6431 H   0  0  0  0  0  0  0  0  0  0  0  0
   13.0078    0.3853   -7.5694 H   0  0  0  0  0  0  0  0  0  0  0  0
   14.7510   -2.5586   -6.8119 H   0  0  0  0  0  0  0  0  0  0  0  0
   14.1501   -2.1955   -5.1895 H   0  0  0  0  0  0  0  0  0  0  0  0
  1 34  1  0  0  0  0
  1 35  1  0  0  0  0
  1 36  1  0  0  0  0
  1  2  1  0  0  0  0
  2  3  2  0  0  0  0
  2  4  1  0  0  0  0
  4 37  1  0  0  0  0
  5  4  1  0  0  0  0
  5 38  1  0  0  0  0
  5  6  1  0  0  0  0
  5 10  1  0  0  0  0
  6  7  1  0  0  0  0
  6  8  1  0  0  0  0
  6  9  1  0  0  0  0
  7 39  1  0  0  0  0
  7 40  1  0  0  0  0
  7 41  1  0  0  0  0
  8 42  1  0  0  0  0
  8 43  1  0  0  0  0
  8 44  1  0  0  0  0
  9 45  1  0  0  0  0
  9 46  1  0  0  0  0
  9 47  1  0  0  0  0
 10 11  2  0  0  0  0
 10 12  1  0  0  0  0
 12 33  1  0  0  0  0
 13 12  1  0  0  0  0
 13 30  1  0  0  0  0
 13 48  1  0  0  0  0
 13 14  1  0  0  0  0
 14 15  2  0  0  0  0
 14 16  1  0  0  0  0
 16 49  1  0  0  0  0
 16 17  1  0  0  0  0
 17 50  1  0  0  0  0
 17 51  1  0  0  0  0
 17 18  1  0  0  0  0
 18 19  1  0  0  0  0
 18 29  2  0  0  0  0
 19 52  1  0  0  0  0
 19 20  2  0  0  0  0
 20 53  1  0  0  0  0
 20 21  1  0  0  0  0
 21 28  2  0  0  0  0
 21 22  1  0  0  0  0
 22 23  2  0  0  0  0
 22 27  1  0  0  0  0
 23 24  1  0  0  0  0
 23 25  1  0  0  0  0
 24 54  1  0  0  0  0
 24 55  1  0  0  0  0
 24 56  1  0  0  0  0
 25 26  2  0  0  0  0
 26 57  1  0  0  0  0
 26 27  1  0  0  0  0
 28 58  1  0  0  0  0
 28 29  1  0  0  0  0
 29 59  1  0  0  0  0
 31 30  1  0  0  0  0
 30 60  1  0  0  0  0
 30 61  1  0  0  0  0
 31 33  1  0  0  0  0
 31 62  1  0  0  0  0
 31 32  1  0  0  0  0
 32 63  1  0  0  0  0
 33 64  1  0  0  0  0
 33 65  1  0  0  0  0
M  ZZC   1 c1
M  ZZC   2 c2
M  ZZC   3 o1
M  ZZC   4 n1
M  ZZC   5 c3
M  ZZC   6 c4
M  ZZC   7 c5
M  ZZC   8 c6
M  ZZC   9 c7
M  ZZC  10 c8
M  ZZC  11 o2
M  ZZC  12 n2
M  ZZC  13 c9
M  ZZC  14 c10
M  ZZC  15 o3
M  ZZC  16 n3
M  ZZC  17 c11
M  ZZC  18 c12
M  ZZC  19 c13
M  ZZC  20 c14
M  ZZC  21 c15
M  ZZC  22 c16
M  ZZC  23 c17
M  ZZC  24 c18
M  ZZC  25 n4
M  ZZC  26 c19
M  ZZC  27 s1
M  ZZC  28 c20
M  ZZC  29 c21
M  ZZC  30 c22
M  ZZC  31 c23
M  ZZC  32 o4
M  ZZC  33 c24
M  ZZC  34 h11
M  ZZC  35 h12
M  ZZC  36 h13
M  ZZC  37 h01
M  ZZC  38 h31
M  ZZC  39 h51
M  ZZC  40 h52
M  ZZC  41 h53
M  ZZC  42 h61
M  ZZC  43 h62
M  ZZC  44 h63
M  ZZC  45 h71
M  ZZC  46 h72
M  ZZC  47 h73
M  ZZC  48 h91
M  ZZC  49 h02
M  ZZC  50 h111
M  ZZC  51 h112
M  ZZC  52 h131
M  ZZC  53 h141
M  ZZC  54 h181
M  ZZC  55 h182
M  ZZC  56 h183
M  ZZC  57 h191
M  ZZC  58 h201
M  ZZC  59 h211
M  ZZC  60 h221
M  ZZC  61 h222
M  ZZC  62 h231
M  ZZC  63 h41
M  ZZC  64 h241
M  ZZC  65 h242
M  ZZM   1 1
M  ZZI   1 111
M  ZZM   2 3
M  ZZI   2 121
M  ZZM   3 7
M  ZZI   3 81
M  ZZM   4 10
M  ZZI   4 211
M  ZZM   5 1
M  ZZI   5 113
M  ZZM   6 1
M  ZZI   6 110
M  ZZM   7 1
M  ZZI   7 111
M  ZZM   8 1
M  ZZI   8 111
M  ZZM   9 1
M  ZZI   9 111
M  ZZM  10 3
M  ZZI  10 121
M  ZZM  11 7
M  ZZI  11 81
M  ZZM  12 10
M  ZZI  12 192
M  ZZM  13 1
M  ZZI  13 113
M  ZZM  14 3
M  ZZI  14 121
M  ZZM  15 7
M  ZZI  15 81
M  ZZM  16 10
M  ZZI  16 211
M  ZZM  17 1
M  ZZI  17 112
M  ZZM  18 37
M  ZZI  18 124
M  ZZM  19 37
M  ZZI  19 125
M  ZZM  20 37
M  ZZI  20 125
M  ZZM  21 37
M  ZZI  21 124
M  ZZM  22 63
M  ZZI  22 104
M  ZZM  23 64
M  ZZI  23 105
M  ZZM  24 1
M  ZZI  24 111
M  ZZM  25 66
M  ZZI  25 222
M  ZZM  26 63
M  ZZI  26 104
M  ZZM  27 44
M  ZZI  27 248
M  ZZM  28 37
M  ZZI  28 125
M  ZZM  29 37
M  ZZI  29 125
M  ZZM  30 1
M  ZZI  30 112
M  ZZM  31 1
M  ZZI  31 113
M  ZZM  32 6
M  ZZI  32 60
M  ZZM  33 1
M  ZZI  33 112
M  ZZM  34 5
M  ZZI  34 1
M  ZZM  35 5
M  ZZI  35 1
M  ZZM  36 5
M  ZZI  36 1
M  ZZM  37 28
M  ZZI  37 11
M  ZZM  38 5
M  ZZI  38 1
M  ZZM  39 5
M  ZZI  39 1
M  ZZM  40 5
M  ZZI  40 1
M  ZZM  41 5
M  ZZI  41 1
M  ZZM  42 5
M  ZZI  42 1
M  ZZM  43 5
M  ZZI  43 1
M  ZZM  44 5
M  ZZI  44 1
M  ZZM  45 5
M  ZZI  45 1
M  ZZM  46 5
M  ZZI  46 1
M  ZZM  47 5
M  ZZI  47 1
M  ZZM  48 5
M  ZZI  48 1
M  ZZM  49 28
M  ZZI  49 11
M  ZZM  50 5
M  ZZI  50 1
M  ZZM  51 5
M  ZZI  51 1
M  ZZM  52 5
M  ZZI  52 1
M  ZZM  53 5
M  ZZI  53 1
M  ZZM  54 5
M  ZZI  54 1
M  ZZM  55 5
M  ZZI  55 1
M  ZZM  56 5
M  ZZI  56 1
M  ZZM  57 5
M  ZZI  57 1
M  ZZM  58 5
M  ZZI  58 1
M  ZZM  59 5
M  ZZI  59 1
M  ZZM  60 5
M  ZZI  60 1
M  ZZM  61 5
M  ZZI  61 1
M  ZZM  62 5
M  ZZI  62 1
M  ZZM  63 21
M  ZZI  63 20
M  ZZM  64 5
M  ZZI  64 1
M  ZZM  65 5
M  ZZI  65 1
M  END
> <IX>
1

> <NAME>
VHL_4IM0_14.pdb

> <Score>
-6.841744

> <Natom>
65

> <Nflex>
8

> <Hbond>
-5.951378

> <Hphob>
-6.91726

> <VwInt>
-28.042064

> <Dsolv>
22.040334

> <SolEl>
23.593328

> <Eintl>
6.650039

> <RecConf>
ND

> <projPath>
VHL_maps/

> <NAME_>
VHL_4IM0_14.pdb

$$$$
