VHL_5VBP_6.pdb
  MOLSOFT 04032206433D

 65 67  0  0  1  0  0  0  0  0999 V2000
   18.3441   -6.9470   -5.3098 C   0  0  0  0  0  0  0  0  0  0  0  0
   17.1703   -6.0079   -5.2710 C   0  0  0  0  0  0  0  0  0  0  0  0
   16.0704   -6.3648   -5.6611 O   0  0  0  0  0  0  0  0  0  0  0  0
   17.4655   -4.7686   -4.7355 N   0  0  0  0  0  0  0  0  0  0  0  0
   16.4956   -3.6744   -4.6204 C   0  0  1  0  0  0  0  0  0  0  0  0
   15.8775   -3.5420   -3.1916 C   0  0  0  0  0  0  0  0  0  0  0  0
   15.3866   -4.9063   -2.6822 C   0  0  0  0  0  0  0  0  0  0  0  0
   14.6608   -2.6032   -3.2233 C   0  0  0  0  0  0  0  0  0  0  0  0
   16.8858   -2.9921   -2.1703 C   0  0  0  0  0  0  0  0  0  0  0  0
   17.1967   -2.3883   -5.0984 C   0  0  0  0  0  0  0  0  0  0  0  0
   18.3497   -2.1381   -4.7788 O   0  0  0  0  0  0  0  0  0  0  0  0
   16.4620   -1.4740   -5.8542 N   0  0  0  0  0  0  0  0  0  0  0  0
   17.0296   -0.1793   -6.2145 C   0  0  2  0  0  0  0  0  0  0  0  0
   17.2407    0.8054   -5.0770 C   0  0  0  0  0  0  0  0  0  0  0  0
   16.6360    0.7574   -4.0146 O   0  0  0  0  0  0  0  0  0  0  0  0
   18.1271    1.8055   -5.4304 N   0  0  0  0  0  0  0  0  0  0  0  0
   18.2673    3.0178   -4.6585 C   0  0  0  0  0  0  0  0  0  0  0  0
   17.3201    4.0680   -5.1779 C   0  0  0  0  0  0  0  0  0  0  0  0
   16.1116    4.3157   -4.5343 C   0  0  0  0  0  0  0  0  0  0  0  0
   15.2287    5.2623   -5.0251 C   0  0  0  0  0  0  0  0  0  0  0  0
   15.5285    5.9801   -6.1785 C   0  0  0  0  0  0  0  0  0  0  0  0
   14.6320    7.0149   -6.6706 C   0  0  0  0  0  0  0  0  0  0  0  0
   13.9373    7.1289   -7.8680 C   0  0  0  0  0  0  0  0  0  0  0  0
   13.8959    6.1420   -8.9705 C   0  0  0  0  0  0  0  0  0  0  0  0
   13.2212    8.3001   -8.0158 N   0  0  0  0  0  0  0  0  0  0  0  0
   13.3722    9.0440   -6.9431 C   0  0  0  0  0  0  0  0  0  0  0  0
   14.3377    8.3997   -5.6969 S   0  0  0  0  0  0  0  0  0  0  0  0
   16.7202    5.7095   -6.8424 C   0  0  0  0  0  0  0  0  0  0  0  0
   17.6056    4.7671   -6.3475 C   0  0  0  0  0  0  0  0  0  0  0  0
   16.0444    0.4342   -7.2026 C   0  0  2  0  0  0  0  0  0  0  0  0
   15.0849    1.1454   -6.5429 F   0  0  0  0  0  0  0  0  0  0  0  0
   15.3863   -0.7714   -7.8352 C   0  0  1  0  0  0  0  0  0  0  0  0
   16.1776   -1.2597   -8.9312 O   0  0  0  0  0  0  0  0  0  0  0  0
   15.3230   -1.7817   -6.6959 C   0  0  0  0  0  0  0  0  0  0  0  0
   19.2932   -6.4032   -5.2899 H   0  0  0  0  0  0  0  0  0  0  0  0
   18.3047   -7.5332   -6.2321 H   0  0  0  0  0  0  0  0  0  0  0  0
   18.2878   -7.6200   -4.4515 H   0  0  0  0  0  0  0  0  0  0  0  0
   18.4137   -4.5940   -4.4239 H   0  0  0  0  0  0  0  0  0  0  0  0
   15.7002   -3.9094   -5.3142 H   0  0  0  0  0  0  0  0  0  0  0  0
   14.9007   -4.8195   -1.7056 H   0  0  0  0  0  0  0  0  0  0  0  0
   16.2058   -5.6206   -2.5642 H   0  0  0  0  0  0  0  0  0  0  0  0
   14.6565   -5.3453   -3.3653 H   0  0  0  0  0  0  0  0  0  0  0  0
   14.9470   -1.5865   -3.5117 H   0  0  0  0  0  0  0  0  0  0  0  0
   14.1814   -2.5372   -2.2414 H   0  0  0  0  0  0  0  0  0  0  0  0
   13.9050   -2.9335   -3.9408 H   0  0  0  0  0  0  0  0  0  0  0  0
   16.4676   -2.9915   -1.1584 H   0  0  0  0  0  0  0  0  0  0  0  0
   17.1762   -1.9609   -2.3927 H   0  0  0  0  0  0  0  0  0  0  0  0
   17.7973   -3.5920   -2.1419 H   0  0  0  0  0  0  0  0  0  0  0  0
   17.9913   -0.3743   -6.6905 H   0  0  0  0  0  0  0  0  0  0  0  0
   18.6354    1.7459   -6.3064 H   0  0  0  0  0  0  0  0  0  0  0  0
   18.0820    2.8083   -3.5994 H   0  0  0  0  0  0  0  0  0  0  0  0
   19.3044    3.3574   -4.7504 H   0  0  0  0  0  0  0  0  0  0  0  0
   15.8459    3.7624   -3.6377 H   0  0  0  0  0  0  0  0  0  0  0  0
   14.2957    5.4346   -4.4958 H   0  0  0  0  0  0  0  0  0  0  0  0
   14.8737    6.0562   -9.4527 H   0  0  0  0  0  0  0  0  0  0  0  0
   13.1713    6.4363   -9.7350 H   0  0  0  0  0  0  0  0  0  0  0  0
   13.6050    5.1544   -8.6003 H   0  0  0  0  0  0  0  0  0  0  0  0
   12.9172   10.0157   -6.8382 H   0  0  0  0  0  0  0  0  0  0  0  0
   16.9798    6.2524   -7.7471 H   0  0  0  0  0  0  0  0  0  0  0  0
   18.5314    4.5816   -6.8843 H   0  0  0  0  0  0  0  0  0  0  0  0
   16.5297    1.1000   -7.9242 H   0  0  0  0  0  0  0  0  0  0  0  0
   14.3868   -0.5397   -8.2032 H   0  0  0  0  0  0  0  0  0  0  0  0
   17.1113   -1.2584   -8.6498 H   0  0  0  0  0  0  0  0  0  0  0  0
   15.3854   -2.8078   -7.0655 H   0  0  0  0  0  0  0  0  0  0  0  0
   14.4200   -1.6490   -6.0916 H   0  0  0  0  0  0  0  0  0  0  0  0
  1 35  1  0  0  0  0
  1 36  1  0  0  0  0
  1 37  1  0  0  0  0
  1  2  1  0  0  0  0
  2  3  2  0  0  0  0
  2  4  1  0  0  0  0
  4 38  1  0  0  0  0
  5  4  1  0  0  0  0
  5 39  1  0  0  0  0
  5  6  1  0  0  0  0
  5 10  1  0  0  0  0
  6  7  1  0  0  0  0
  6  8  1  0  0  0  0
  6  9  1  0  0  0  0
  7 40  1  0  0  0  0
  7 41  1  0  0  0  0
  7 42  1  0  0  0  0
  8 43  1  0  0  0  0
  8 44  1  0  0  0  0
  8 45  1  0  0  0  0
  9 46  1  0  0  0  0
  9 47  1  0  0  0  0
  9 48  1  0  0  0  0
 10 11  2  0  0  0  0
 10 12  1  0  0  0  0
 12 34  1  0  0  0  0
 13 12  1  0  0  0  0
 13 30  1  0  0  0  0
 13 49  1  0  0  0  0
 13 14  1  0  0  0  0
 14 15  2  0  0  0  0
 14 16  1  0  0  0  0
 16 50  1  0  0  0  0
 16 17  1  0  0  0  0
 17 51  1  0  0  0  0
 17 52  1  0  0  0  0
 17 18  1  0  0  0  0
 18 19  1  0  0  0  0
 18 29  2  0  0  0  0
 19 53  1  0  0  0  0
 19 20  2  0  0  0  0
 20 54  1  0  0  0  0
 20 21  1  0  0  0  0
 21 28  2  0  0  0  0
 21 22  1  0  0  0  0
 22 23  2  0  0  0  0
 22 27  1  0  0  0  0
 23 24  1  0  0  0  0
 23 25  1  0  0  0  0
 24 55  1  0  0  0  0
 24 56  1  0  0  0  0
 24 57  1  0  0  0  0
 25 26  2  0  0  0  0
 26 58  1  0  0  0  0
 26 27  1  0  0  0  0
 28 59  1  0  0  0  0
 28 29  1  0  0  0  0
 29 60  1  0  0  0  0
 30 32  1  0  0  0  0
 30 31  1  0  0  0  0
 30 61  1  0  0  0  0
 32 34  1  0  0  0  0
 32 62  1  0  0  0  0
 32 33  1  0  0  0  0
 33 63  1  0  0  0  0
 34 64  1  0  0  0  0
 34 65  1  0  0  0  0
M  ZZC   1 c1
M  ZZC   2 c2
M  ZZC   3 o1
M  ZZC   4 n1
M  ZZC   5 c3
M  ZZC   6 c4
M  ZZC   7 c5
M  ZZC   8 c6
M  ZZC   9 c7
M  ZZC  10 c8
M  ZZC  11 o2
M  ZZC  12 n2
M  ZZC  13 c9
M  ZZC  14 c10
M  ZZC  15 o3
M  ZZC  16 n3
M  ZZC  17 c11
M  ZZC  18 c12
M  ZZC  19 c13
M  ZZC  20 c14
M  ZZC  21 c15
M  ZZC  22 c16
M  ZZC  23 c17
M  ZZC  24 c18
M  ZZC  25 n4
M  ZZC  26 c19
M  ZZC  27 s1
M  ZZC  28 c20
M  ZZC  29 c21
M  ZZC  30 c22
M  ZZC  31 f1
M  ZZC  32 c23
M  ZZC  33 o4
M  ZZC  34 c24
M  ZZC  35 h11
M  ZZC  36 h12
M  ZZC  37 h13
M  ZZC  38 h01
M  ZZC  39 h31
M  ZZC  40 h51
M  ZZC  41 h52
M  ZZC  42 h53
M  ZZC  43 h61
M  ZZC  44 h62
M  ZZC  45 h63
M  ZZC  46 h71
M  ZZC  47 h72
M  ZZC  48 h73
M  ZZC  49 h91
M  ZZC  50 h02
M  ZZC  51 h111
M  ZZC  52 h112
M  ZZC  53 h131
M  ZZC  54 h141
M  ZZC  55 h181
M  ZZC  56 h182
M  ZZC  57 h183
M  ZZC  58 h191
M  ZZC  59 h201
M  ZZC  60 h211
M  ZZC  61 h221
M  ZZC  62 h231
M  ZZC  63 h41
M  ZZC  64 h241
M  ZZC  65 h242
M  ZZM   1 1
M  ZZI   1 111
M  ZZM   2 3
M  ZZI   2 121
M  ZZM   3 7
M  ZZI   3 81
M  ZZM   4 10
M  ZZI   4 211
M  ZZM   5 1
M  ZZI   5 113
M  ZZM   6 1
M  ZZI   6 110
M  ZZM   7 1
M  ZZI   7 111
M  ZZM   8 1
M  ZZI   8 111
M  ZZM   9 1
M  ZZI   9 111
M  ZZM  10 3
M  ZZI  10 121
M  ZZM  11 7
M  ZZI  11 81
M  ZZM  12 10
M  ZZI  12 192
M  ZZM  13 1
M  ZZI  13 113
M  ZZM  14 3
M  ZZI  14 121
M  ZZM  15 7
M  ZZI  15 81
M  ZZM  16 10
M  ZZI  16 211
M  ZZM  17 1
M  ZZI  17 112
M  ZZM  18 37
M  ZZI  18 124
M  ZZM  19 37
M  ZZI  19 125
M  ZZM  20 37
M  ZZI  20 125
M  ZZM  21 37
M  ZZI  21 124
M  ZZM  22 63
M  ZZI  22 104
M  ZZM  23 64
M  ZZI  23 105
M  ZZM  24 1
M  ZZI  24 111
M  ZZM  25 66
M  ZZI  25 222
M  ZZM  26 63
M  ZZI  26 104
M  ZZM  27 44
M  ZZI  27 248
M  ZZM  28 37
M  ZZI  28 125
M  ZZM  29 37
M  ZZI  29 125
M  ZZM  30 1
M  ZZI  30 113
M  ZZM  31 11
M  ZZI  31 90
M  ZZM  32 1
M  ZZI  32 113
M  ZZM  33 6
M  ZZI  33 60
M  ZZM  34 1
M  ZZI  34 112
M  ZZM  35 5
M  ZZI  35 1
M  ZZM  36 5
M  ZZI  36 1
M  ZZM  37 5
M  ZZI  37 1
M  ZZM  38 28
M  ZZI  38 11
M  ZZM  39 5
M  ZZI  39 1
M  ZZM  40 5
M  ZZI  40 1
M  ZZM  41 5
M  ZZI  41 1
M  ZZM  42 5
M  ZZI  42 1
M  ZZM  43 5
M  ZZI  43 1
M  ZZM  44 5
M  ZZI  44 1
M  ZZM  45 5
M  ZZI  45 1
M  ZZM  46 5
M  ZZI  46 1
M  ZZM  47 5
M  ZZI  47 1
M  ZZM  48 5
M  ZZI  48 1
M  ZZM  49 5
M  ZZI  49 1
M  ZZM  50 28
M  ZZI  50 11
M  ZZM  51 5
M  ZZI  51 1
M  ZZM  52 5
M  ZZI  52 1
M  ZZM  53 5
M  ZZI  53 1
M  ZZM  54 5
M  ZZI  54 1
M  ZZM  55 5
M  ZZI  55 1
M  ZZM  56 5
M  ZZI  56 1
M  ZZM  57 5
M  ZZI  57 1
M  ZZM  58 5
M  ZZI  58 1
M  ZZM  59 5
M  ZZI  59 1
M  ZZM  60 5
M  ZZI  60 1
M  ZZM  61 5
M  ZZI  61 1
M  ZZM  62 5
M  ZZI  62 1
M  ZZM  63 21
M  ZZI  63 20
M  ZZM  64 5
M  ZZI  64 1
M  ZZM  65 5
M  ZZI  65 1
M  END
> <IX>
1

> <NAME>
VHL_5VBP_6.pdb

> <Score>
-22.659725

> <Natom>
65

> <Nflex>
8

> <Hbond>
-7.780354

> <Hphob>
-6.522595

> <VwInt>
-30.142808

> <Dsolv>
21.157705

> <SolEl>
12.0733

> <Eintl>
4.83477

> <RecConf>
ND

> <projPath>
VHL_maps/

> <NAME_>
VHL_5VBP_6.pdb

$$$$
