VHL_4QNQ_19.pdb
  MOLSOFT 04032206403D

 68 70  0  0  1  0  0  0  0  0999 V2000
   18.2235   -6.4017   -5.2461 C   0  0  0  0  0  0  0  0  0  0  0  0
   16.9995   -5.5604   -5.0047 C   0  0  0  0  0  0  0  0  0  0  0  0
   15.8852   -5.9934   -5.2444 O   0  0  0  0  0  0  0  0  0  0  0  0
   17.2682   -4.3089   -4.4834 N   0  0  0  0  0  0  0  0  0  0  0  0
   16.2515   -3.2872   -4.1934 C   0  0  1  0  0  0  0  0  0  0  0  0
   15.9872   -3.1408   -2.6633 C   0  0  0  0  0  0  0  0  0  0  0  0
   14.8656   -2.1360   -2.3719 C   0  0  0  0  0  0  0  0  0  0  0  0
   15.5311   -4.4960   -2.0970 C   0  0  0  0  0  0  0  0  0  0  0  0
   17.2387   -2.6822   -1.9021 C   0  0  0  0  0  0  0  0  0  0  0  0
   16.7567   -2.0262   -4.9358 C   0  0  0  0  0  0  0  0  0  0  0  0
   17.9485   -1.7399   -4.9413 O   0  0  0  0  0  0  0  0  0  0  0  0
   15.8283   -1.2569   -5.6466 N   0  0  0  0  0  0  0  0  0  0  0  0
   16.2323   -0.4091   -6.7709 C   0  0  2  0  0  0  0  0  0  0  0  0
   16.6386    1.0245   -6.3984 C   0  0  0  0  0  0  0  0  0  0  0  0
   16.2457    2.0009   -7.0227 O   0  0  0  0  0  0  0  0  0  0  0  0
   17.6023    1.0999   -5.4117 N   0  0  0  0  0  0  0  0  0  0  0  0
   18.1883    2.3559   -4.9591 C   0  0  1  0  0  0  0  0  0  0  0  0
   18.4463    2.2513   -3.4552 C   0  0  0  0  0  0  0  0  0  0  0  0
   19.4575    2.7426   -5.7064 C   0  0  0  0  0  0  0  0  0  0  0  0
   20.0419    1.9211   -6.6654 C   0  0  0  0  0  0  0  0  0  0  0  0
   21.2456    2.2526   -7.2591 C   0  0  0  0  0  0  0  0  0  0  0  0
   21.9144    3.4310   -6.9460 C   0  0  0  0  0  0  0  0  0  0  0  0
   23.2273    3.7315   -7.5192 C   0  0  0  0  0  0  0  0  0  0  0  0
   24.4084    4.1662   -6.9235 C   0  0  0  0  0  0  0  0  0  0  0  0
   24.6425    4.4696   -5.4925 C   0  0  0  0  0  0  0  0  0  0  0  0
   25.4853    4.2980   -7.7775 N   0  0  0  0  0  0  0  0  0  0  0  0
   25.1252    3.9871   -9.0006 C   0  0  0  0  0  0  0  0  0  0  0  0
   23.4937    3.5444   -9.2109 S   0  0  0  0  0  0  0  0  0  0  0  0
   21.3027    4.2882   -6.0389 C   0  0  0  0  0  0  0  0  0  0  0  0
   20.1003    3.9509   -5.4356 C   0  0  0  0  0  0  0  0  0  0  0  0
   15.0140   -0.4442   -7.6791 C   0  0  0  0  0  0  0  0  0  0  0  0
   13.8529   -0.4681   -6.7025 C   0  0  1  0  0  0  0  0  0  0  0  0
   12.7103   -1.0772   -7.2969 O   0  0  0  0  0  0  0  0  0  0  0  0
   14.3782   -1.3081   -5.5495 C   0  0  0  0  0  0  0  0  0  0  0  0
   19.1201   -5.7852   -5.3597 H   0  0  0  0  0  0  0  0  0  0  0  0
   18.0884   -6.9803   -6.1646 H   0  0  0  0  0  0  0  0  0  0  0  0
   18.3522   -7.0895   -4.4069 H   0  0  0  0  0  0  0  0  0  0  0  0
   18.2385   -4.0477   -4.3487 H   0  0  0  0  0  0  0  0  0  0  0  0
   15.3289   -3.6251   -4.6630 H   0  0  0  0  0  0  0  0  0  0  0  0
   15.1436   -1.1216   -2.6712 H   0  0  0  0  0  0  0  0  0  0  0  0
   14.6346   -2.0939   -1.3023 H   0  0  0  0  0  0  0  0  0  0  0  0
   13.9391   -2.4125   -2.8845 H   0  0  0  0  0  0  0  0  0  0  0  0
   15.2614   -4.4172   -1.0395 H   0  0  0  0  0  0  0  0  0  0  0  0
   16.3122   -5.2560   -2.1735 H   0  0  0  0  0  0  0  0  0  0  0  0
   14.6529   -4.8773   -2.6279 H   0  0  0  0  0  0  0  0  0  0  0  0
   17.0493   -2.6165   -0.8258 H   0  0  0  0  0  0  0  0  0  0  0  0
   17.5791   -1.6959   -2.2318 H   0  0  0  0  0  0  0  0  0  0  0  0
   18.0655   -3.3790   -2.0366 H   0  0  0  0  0  0  0  0  0  0  0  0
   17.0932   -0.8580   -7.2744 H   0  0  0  0  0  0  0  0  0  0  0  0
   17.9684    0.2292   -5.0327 H   0  0  0  0  0  0  0  0  0  0  0  0
   17.4463    3.1427   -5.1361 H   0  0  0  0  0  0  0  0  0  0  0  0
   18.7969    3.1958   -3.0292 H   0  0  0  0  0  0  0  0  0  0  0  0
   19.2009    1.4888   -3.2329 H   0  0  0  0  0  0  0  0  0  0  0  0
   17.5330    1.9674   -2.9229 H   0  0  0  0  0  0  0  0  0  0  0  0
   19.5790    0.9826   -6.9474 H   0  0  0  0  0  0  0  0  0  0  0  0
   21.6762    1.5427   -7.9547 H   0  0  0  0  0  0  0  0  0  0  0  0
   24.2316    5.4486   -5.2285 H   0  0  0  0  0  0  0  0  0  0  0  0
   25.7089    4.4898   -5.2584 H   0  0  0  0  0  0  0  0  0  0  0  0
   24.1616    3.7216   -4.8563 H   0  0  0  0  0  0  0  0  0  0  0  0
   25.8144    4.0149   -9.8325 H   0  0  0  0  0  0  0  0  0  0  0  0
   21.7667    5.2343   -5.7787 H   0  0  0  0  0  0  0  0  0  0  0  0
   19.6706    4.6464   -4.7211 H   0  0  0  0  0  0  0  0  0  0  0  0
   14.9448    0.3928   -8.3803 H   0  0  0  0  0  0  0  0  0  0  0  0
   15.0211   -1.3611   -8.2794 H   0  0  0  0  0  0  0  0  0  0  0  0
   13.5960    0.5478   -6.3795 H   0  0  0  0  0  0  0  0  0  0  0  0
   11.9256   -0.8098   -6.7867 H   0  0  0  0  0  0  0  0  0  0  0  0
   14.0167   -2.3376   -5.5763 H   0  0  0  0  0  0  0  0  0  0  0  0
   14.0651   -0.8662   -4.6022 H   0  0  0  0  0  0  0  0  0  0  0  0
  1 35  1  0  0  0  0
  1 36  1  0  0  0  0
  1 37  1  0  0  0  0
  1  2  1  0  0  0  0
  2  3  2  0  0  0  0
  2  4  1  0  0  0  0
  4 38  1  0  0  0  0
  5  4  1  0  0  0  0
  5 39  1  0  0  0  0
  5  6  1  0  0  0  0
  5 10  1  0  0  0  0
  6  7  1  0  0  0  0
  6  8  1  0  0  0  0
  6  9  1  0  0  0  0
  7 40  1  0  0  0  0
  7 41  1  0  0  0  0
  7 42  1  0  0  0  0
  8 43  1  0  0  0  0
  8 44  1  0  0  0  0
  8 45  1  0  0  0  0
  9 46  1  0  0  0  0
  9 47  1  0  0  0  0
  9 48  1  0  0  0  0
 10 11  2  0  0  0  0
 10 12  1  0  0  0  0
 12 34  1  0  0  0  0
 13 12  1  0  0  0  0
 13 31  1  0  0  0  0
 13 49  1  0  0  0  0
 13 14  1  0  0  0  0
 14 15  2  0  0  0  0
 14 16  1  0  0  0  0
 16 50  1  0  0  0  0
 17 16  1  0  0  0  0
 17 51  1  0  0  0  0
 17 18  1  0  0  0  0
 17 19  1  0  0  0  0
 18 52  1  0  0  0  0
 18 53  1  0  0  0  0
 18 54  1  0  0  0  0
 19 20  1  0  0  0  0
 19 30  2  0  0  0  0
 20 55  1  0  0  0  0
 20 21  2  0  0  0  0
 21 56  1  0  0  0  0
 21 22  1  0  0  0  0
 22 29  2  0  0  0  0
 22 23  1  0  0  0  0
 23 24  2  0  0  0  0
 23 28  1  0  0  0  0
 24 25  1  0  0  0  0
 24 26  1  0  0  0  0
 25 57  1  0  0  0  0
 25 58  1  0  0  0  0
 25 59  1  0  0  0  0
 26 27  2  0  0  0  0
 27 60  1  0  0  0  0
 27 28  1  0  0  0  0
 29 61  1  0  0  0  0
 29 30  1  0  0  0  0
 30 62  1  0  0  0  0
 32 31  1  0  0  0  0
 31 63  1  0  0  0  0
 31 64  1  0  0  0  0
 32 34  1  0  0  0  0
 32 65  1  0  0  0  0
 32 33  1  0  0  0  0
 33 66  1  0  0  0  0
 34 67  1  0  0  0  0
 34 68  1  0  0  0  0
M  ZZC   1 c1
M  ZZC   2 c2
M  ZZC   3 o1
M  ZZC   4 n1
M  ZZC   5 c3
M  ZZC   6 c4
M  ZZC   7 c5
M  ZZC   8 c6
M  ZZC   9 c7
M  ZZC  10 c8
M  ZZC  11 o2
M  ZZC  12 n2
M  ZZC  13 c9
M  ZZC  14 c10
M  ZZC  15 o3
M  ZZC  16 n3
M  ZZC  17 c11
M  ZZC  18 c12
M  ZZC  19 c13
M  ZZC  20 c14
M  ZZC  21 c15
M  ZZC  22 c16
M  ZZC  23 c17
M  ZZC  24 c18
M  ZZC  25 c19
M  ZZC  26 n4
M  ZZC  27 c20
M  ZZC  28 s1
M  ZZC  29 c21
M  ZZC  30 c22
M  ZZC  31 c23
M  ZZC  32 c24
M  ZZC  33 o4
M  ZZC  34 c25
M  ZZC  35 h11
M  ZZC  36 h12
M  ZZC  37 h13
M  ZZC  38 h01
M  ZZC  39 h31
M  ZZC  40 h51
M  ZZC  41 h52
M  ZZC  42 h53
M  ZZC  43 h61
M  ZZC  44 h62
M  ZZC  45 h63
M  ZZC  46 h71
M  ZZC  47 h72
M  ZZC  48 h73
M  ZZC  49 h91
M  ZZC  50 h02
M  ZZC  51 h111
M  ZZC  52 h121
M  ZZC  53 h122
M  ZZC  54 h123
M  ZZC  55 h141
M  ZZC  56 h151
M  ZZC  57 h191
M  ZZC  58 h192
M  ZZC  59 h193
M  ZZC  60 h201
M  ZZC  61 h211
M  ZZC  62 h221
M  ZZC  63 h231
M  ZZC  64 h232
M  ZZC  65 h241
M  ZZC  66 h41
M  ZZC  67 h251
M  ZZC  68 h252
M  ZZM   1 1
M  ZZI   1 111
M  ZZM   2 3
M  ZZI   2 121
M  ZZM   3 7
M  ZZI   3 81
M  ZZM   4 10
M  ZZI   4 211
M  ZZM   5 1
M  ZZI   5 113
M  ZZM   6 1
M  ZZI   6 110
M  ZZM   7 1
M  ZZI   7 111
M  ZZM   8 1
M  ZZI   8 111
M  ZZM   9 1
M  ZZI   9 111
M  ZZM  10 3
M  ZZI  10 121
M  ZZM  11 7
M  ZZI  11 81
M  ZZM  12 10
M  ZZI  12 192
M  ZZM  13 1
M  ZZI  13 113
M  ZZM  14 3
M  ZZI  14 121
M  ZZM  15 7
M  ZZI  15 81
M  ZZM  16 10
M  ZZI  16 211
M  ZZM  17 1
M  ZZI  17 113
M  ZZM  18 1
M  ZZI  18 111
M  ZZM  19 37
M  ZZI  19 124
M  ZZM  20 37
M  ZZI  20 125
M  ZZM  21 37
M  ZZI  21 125
M  ZZM  22 37
M  ZZI  22 124
M  ZZM  23 63
M  ZZI  23 104
M  ZZM  24 64
M  ZZI  24 105
M  ZZM  25 1
M  ZZI  25 111
M  ZZM  26 66
M  ZZI  26 222
M  ZZM  27 63
M  ZZI  27 104
M  ZZM  28 44
M  ZZI  28 248
M  ZZM  29 37
M  ZZI  29 125
M  ZZM  30 37
M  ZZI  30 125
M  ZZM  31 1
M  ZZI  31 112
M  ZZM  32 1
M  ZZI  32 113
M  ZZM  33 6
M  ZZI  33 60
M  ZZM  34 1
M  ZZI  34 112
M  ZZM  35 5
M  ZZI  35 1
M  ZZM  36 5
M  ZZI  36 1
M  ZZM  37 5
M  ZZI  37 1
M  ZZM  38 28
M  ZZI  38 11
M  ZZM  39 5
M  ZZI  39 1
M  ZZM  40 5
M  ZZI  40 1
M  ZZM  41 5
M  ZZI  41 1
M  ZZM  42 5
M  ZZI  42 1
M  ZZM  43 5
M  ZZI  43 1
M  ZZM  44 5
M  ZZI  44 1
M  ZZM  45 5
M  ZZI  45 1
M  ZZM  46 5
M  ZZI  46 1
M  ZZM  47 5
M  ZZI  47 1
M  ZZM  48 5
M  ZZI  48 1
M  ZZM  49 5
M  ZZI  49 1
M  ZZM  50 28
M  ZZI  50 11
M  ZZM  51 5
M  ZZI  51 1
M  ZZM  52 5
M  ZZI  52 1
M  ZZM  53 5
M  ZZI  53 1
M  ZZM  54 5
M  ZZI  54 1
M  ZZM  55 5
M  ZZI  55 1
M  ZZM  56 5
M  ZZI  56 1
M  ZZM  57 5
M  ZZI  57 1
M  ZZM  58 5
M  ZZI  58 1
M  ZZM  59 5
M  ZZI  59 1
M  ZZM  60 5
M  ZZI  60 1
M  ZZM  61 5
M  ZZI  61 1
M  ZZM  62 5
M  ZZI  62 1
M  ZZM  63 5
M  ZZI  63 1
M  ZZM  64 5
M  ZZI  64 1
M  ZZM  65 5
M  ZZI  65 1
M  ZZM  66 21
M  ZZI  66 20
M  ZZM  67 5
M  ZZI  67 1
M  ZZM  68 5
M  ZZI  68 1
M  END
> <IX>
1

> <NAME>
VHL_4QNQ_19.pdb

> <Score>
-11.957497

> <Natom>
68

> <Nflex>
8

> <Hbond>
-4.037419

> <Hphob>
-6.348878

> <VwInt>
-29.515504

> <Dsolv>
15.724328

> <SolEl>
14.496877

> <Eintl>
9.775403

> <RecConf>
ND

> <projPath>
VHL_maps/

> <NAME_>
VHL_4QNQ_19.pdb

$$$$
