VHL_5T8E_59.pdb
  MOLSOFT 04032206463D

 85 88  0  0  1  0  0  0  0  0999 V2000
   13.3651    7.5113   -7.8166 C   0  0  0  0  0  0  0  0  0  0  0  0
   14.1089    7.7506   -6.5125 C   0  0  0  0  0  0  0  0  0  0  0  0
   14.5537    6.4387   -5.8781 C   0  0  0  0  0  0  0  0  0  0  0  0
   15.2881    5.5766   -6.8060 N   0  0  0  0  0  0  0  0  0  0  0  0
   16.3564    4.8174   -6.3066 C   0  0  0  0  0  0  0  0  0  0  0  0
   16.7882    4.9421   -5.1692 O   0  0  0  0  0  0  0  0  0  0  0  0
   16.9665    3.8103   -7.2654 C   0  0  0  0  0  0  0  0  0  0  0  0
   17.9270    2.7666   -6.6645 C   0  0  2  0  0  0  0  0  0  0  0  0
   17.4660    2.2409   -5.3830 N   0  0  0  0  0  0  0  0  0  0  0  0
   16.9068    1.0022   -5.0951 C   0  0  0  0  0  0  0  0  0  0  0  0
   16.5256    0.7605   -3.9596 O   0  0  0  0  0  0  0  0  0  0  0  0
   16.7801   -0.0147   -6.2409 C   0  0  1  0  0  0  0  0  0  0  0  0
   16.3352   -1.3522   -5.8303 N   0  0  0  0  0  0  0  0  0  0  0  0
   17.1334   -2.2066   -5.0694 C   0  0  0  0  0  0  0  0  0  0  0  0
   18.2850   -1.9094   -4.7870 O   0  0  0  0  0  0  0  0  0  0  0  0
   16.5003   -3.5269   -4.5688 C   0  0  1  0  0  0  0  0  0  0  0  0
   17.4970   -4.5899   -4.7390 N   0  0  0  0  0  0  0  0  0  0  0  0
   17.2153   -5.8492   -5.2380 C   0  0  0  0  0  0  0  0  0  0  0  0
   16.1053   -6.2407   -5.5612 O   0  0  0  0  0  0  0  0  0  0  0  0
   18.4178   -6.7469   -5.3486 C   0  0  0  0  0  0  0  0  0  0  0  0
   15.9251   -3.4353   -3.1198 C   0  0  0  0  0  0  0  0  0  0  0  0
   14.6983   -2.5090   -3.0930 C   0  0  0  0  0  0  0  0  0  0  0  0
   15.4574   -4.8167   -2.6314 C   0  0  0  0  0  0  0  0  0  0  0  0
   16.9597   -2.9001   -2.1183 C   0  0  0  0  0  0  0  0  0  0  0  0
   15.2176   -1.7995   -6.6347 C   0  0  0  0  0  0  0  0  0  0  0  0
   15.1791   -0.8418   -7.8060 C   0  0  2  0  0  0  0  0  0  0  0  0
   16.0454   -1.2801   -8.8654 O   0  0  0  0  0  0  0  0  0  0  0  0
   15.7067    0.4434   -7.2296 C   0  0  0  0  0  0  0  0  0  0  0  0
   19.3959    3.1420   -6.6514 C   0  0  0  0  0  0  0  0  0  0  0  0
   19.8910    4.3596   -6.1910 C   0  0  0  0  0  0  0  0  0  0  0  0
   21.2493    4.6424   -6.2377 C   0  0  0  0  0  0  0  0  0  0  0  0
   22.1627    3.7218   -6.7472 C   0  0  0  0  0  0  0  0  0  0  0  0
   23.6007    3.9860   -6.7808 C   0  0  0  0  0  0  0  0  0  0  0  0
   24.5435    3.8044   -7.7892 C   0  0  0  0  0  0  0  0  0  0  0  0
   24.3136    3.3221   -9.1697 C   0  0  0  0  0  0  0  0  0  0  0  0
   25.8449    4.0978   -7.4378 N   0  0  0  0  0  0  0  0  0  0  0  0
   25.8883    4.5082   -6.1919 C   0  0  0  0  0  0  0  0  0  0  0  0
   24.3942    4.5795   -5.3708 S   0  0  0  0  0  0  0  0  0  0  0  0
   21.6639    2.5105   -7.2066 C   0  0  0  0  0  0  0  0  0  0  0  0
   20.3161    2.2227   -7.1446 C   0  0  0  0  0  0  0  0  0  0  0  0
   14.6673    5.3833   -8.1234 C   0  0  0  0  0  0  0  0  0  0  0  0
   14.2200    6.6891   -8.7660 C   0  0  0  0  0  0  0  0  0  0  0  0
   12.4245    6.9871   -7.6180 H   0  0  0  0  0  0  0  0  0  0  0  0
   13.1061    8.4672   -8.2814 H   0  0  0  0  0  0  0  0  0  0  0  0
   14.9863    8.3767   -6.7086 H   0  0  0  0  0  0  0  0  0  0  0  0
   13.4712    8.3040   -5.8159 H   0  0  0  0  0  0  0  0  0  0  0  0
   15.1578    6.6462   -4.9899 H   0  0  0  0  0  0  0  0  0  0  0  0
   13.6804    5.8716   -5.5380 H   0  0  0  0  0  0  0  0  0  0  0  0
   16.1267    3.2613   -7.6986 H   0  0  0  0  0  0  0  0  0  0  0  0
   17.4586    4.3580   -8.0761 H   0  0  0  0  0  0  0  0  0  0  0  0
   17.8888    1.9396   -7.3700 H   0  0  0  0  0  0  0  0  0  0  0  0
   17.5192    2.8770   -4.5923 H   0  0  0  0  0  0  0  0  0  0  0  0
   17.7583   -0.1294   -6.7156 H   0  0  0  0  0  0  0  0  0  0  0  0
   15.6787   -3.7903   -5.2209 H   0  0  0  0  0  0  0  0  0  0  0  0
   18.4543   -4.3778   -4.4884 H   0  0  0  0  0  0  0  0  0  0  0  0
   18.4162   -7.2298   -6.3298 H   0  0  0  0  0  0  0  0  0  0  0  0
   18.3623   -7.5118   -4.5702 H   0  0  0  0  0  0  0  0  0  0  0  0
   19.3521   -6.1885   -5.2427 H   0  0  0  0  0  0  0  0  0  0  0  0
   14.9514   -1.4821   -3.3687 H   0  0  0  0  0  0  0  0  0  0  0  0
   14.2498   -2.4669   -2.0950 H   0  0  0  0  0  0  0  0  0  0  0  0
   13.9210   -2.8561   -3.7812 H   0  0  0  0  0  0  0  0  0  0  0  0
   14.9940   -4.7576   -1.6417 H   0  0  0  0  0  0  0  0  0  0  0  0
   16.2853   -5.5258   -2.5492 H   0  0  0  0  0  0  0  0  0  0  0  0
   14.7150   -5.2494   -3.3074 H   0  0  0  0  0  0  0  0  0  0  0  0
   16.5698   -2.9172   -1.0954 H   0  0  0  0  0  0  0  0  0  0  0  0
   17.2432   -1.8655   -2.3329 H   0  0  0  0  0  0  0  0  0  0  0  0
   17.8715   -3.4997   -2.1255 H   0  0  0  0  0  0  0  0  0  0  0  0
   15.3713   -2.8256   -6.9759 H   0  0  0  0  0  0  0  0  0  0  0  0
   14.3135   -1.7250   -6.0215 H   0  0  0  0  0  0  0  0  0  0  0  0
   14.1681   -0.7288   -8.1922 H   0  0  0  0  0  0  0  0  0  0  0  0
   16.9627   -1.2422   -8.5340 H   0  0  0  0  0  0  0  0  0  0  0  0
   14.9043    0.9862   -6.7161 H   0  0  0  0  0  0  0  0  0  0  0  0
   16.1023    1.0801   -8.0234 H   0  0  0  0  0  0  0  0  0  0  0  0
   19.2221    5.1111   -5.7858 H   0  0  0  0  0  0  0  0  0  0  0  0
   21.5877    5.6068   -5.8711 H   0  0  0  0  0  0  0  0  0  0  0  0
   24.3262    2.2301   -9.1954 H   0  0  0  0  0  0  0  0  0  0  0  0
   25.0981    3.6789   -9.8431 H   0  0  0  0  0  0  0  0  0  0  0  0
   23.3576    3.6761   -9.5651 H   0  0  0  0  0  0  0  0  0  0  0  0
   26.8143    4.7865   -5.7091 H   0  0  0  0  0  0  0  0  0  0  0  0
   22.3234    1.7522   -7.6121 H   0  0  0  0  0  0  0  0  0  0  0  0
   19.9889    1.2491   -7.4966 H   0  0  0  0  0  0  0  0  0  0  0  0
   15.3461    4.8769   -8.8112 H   0  0  0  0  0  0  0  0  0  0  0  0
   13.8071    4.7194   -7.9809 H   0  0  0  0  0  0  0  0  0  0  0  0
   13.6615    6.4799   -9.6838 H   0  0  0  0  0  0  0  0  0  0  0  0
   15.1009    7.2730   -9.0541 H   0  0  0  0  0  0  0  0  0  0  0  0
  1 43  1  0  0  0  0
  1 44  1  0  0  0  0
  1  2  1  0  0  0  0
  1 42  1  0  0  0  0
  2 45  1  0  0  0  0
  2 46  1  0  0  0  0
  2  3  1  0  0  0  0
  3 47  1  0  0  0  0
  3 48  1  0  0  0  0
  3  4  1  0  0  0  0
  4 41  1  0  0  0  0
  4  5  1  0  0  0  0
  5  6  2  0  0  0  0
  5  7  1  0  0  0  0
  7 49  1  0  0  0  0
  7 50  1  0  0  0  0
  8  7  1  0  0  0  0
  8 51  1  0  0  0  0
  8 29  1  0  0  0  0
  8  9  1  0  0  0  0
  9 52  1  0  0  0  0
  9 10  1  0  0  0  0
 10 11  2  0  0  0  0
 12 10  1  0  0  0  0
 12 53  1  0  0  0  0
 12 28  1  0  0  0  0
 12 13  1  0  0  0  0
 13 25  1  0  0  0  0
 13 14  1  0  0  0  0
 14 15  2  0  0  0  0
 16 14  1  0  0  0  0
 16 54  1  0  0  0  0
 16 21  1  0  0  0  0
 16 17  1  0  0  0  0
 17 55  1  0  0  0  0
 17 18  1  0  0  0  0
 18 19  2  0  0  0  0
 18 20  1  0  0  0  0
 20 56  1  0  0  0  0
 20 57  1  0  0  0  0
 20 58  1  0  0  0  0
 21 22  1  0  0  0  0
 21 23  1  0  0  0  0
 21 24  1  0  0  0  0
 22 59  1  0  0  0  0
 22 60  1  0  0  0  0
 22 61  1  0  0  0  0
 23 62  1  0  0  0  0
 23 63  1  0  0  0  0
 23 64  1  0  0  0  0
 24 65  1  0  0  0  0
 24 66  1  0  0  0  0
 24 67  1  0  0  0  0
 26 25  1  0  0  0  0
 25 68  1  0  0  0  0
 25 69  1  0  0  0  0
 26 28  1  0  0  0  0
 26 70  1  0  0  0  0
 26 27  1  0  0  0  0
 27 71  1  0  0  0  0
 28 72  1  0  0  0  0
 28 73  1  0  0  0  0
 29 30  1  0  0  0  0
 29 40  2  0  0  0  0
 30 74  1  0  0  0  0
 30 31  2  0  0  0  0
 31 75  1  0  0  0  0
 31 32  1  0  0  0  0
 32 39  2  0  0  0  0
 32 33  1  0  0  0  0
 33 34  2  0  0  0  0
 33 38  1  0  0  0  0
 34 35  1  0  0  0  0
 34 36  1  0  0  0  0
 35 76  1  0  0  0  0
 35 77  1  0  0  0  0
 35 78  1  0  0  0  0
 36 37  2  0  0  0  0
 37 79  1  0  0  0  0
 37 38  1  0  0  0  0
 39 80  1  0  0  0  0
 39 40  1  0  0  0  0
 40 81  1  0  0  0  0
 41 82  1  0  0  0  0
 41 83  1  0  0  0  0
 41 42  1  0  0  0  0
 42 84  1  0  0  0  0
 42 85  1  0  0  0  0
M  ZZC   1 c1
M  ZZC   2 c2
M  ZZC   3 c3
M  ZZC   4 n1
M  ZZC   5 c4
M  ZZC   6 o1
M  ZZC   7 c5
M  ZZC   8 c6
M  ZZC   9 n2
M  ZZC  10 c7
M  ZZC  11 o2
M  ZZC  12 c8
M  ZZC  13 n3
M  ZZC  14 c9
M  ZZC  15 o3
M  ZZC  16 c10
M  ZZC  17 n4
M  ZZC  18 c11
M  ZZC  19 o4
M  ZZC  20 c12
M  ZZC  21 c13
M  ZZC  22 c14
M  ZZC  23 c15
M  ZZC  24 c16
M  ZZC  25 c17
M  ZZC  26 c18
M  ZZC  27 o5
M  ZZC  28 c19
M  ZZC  29 c20
M  ZZC  30 c21
M  ZZC  31 c22
M  ZZC  32 c23
M  ZZC  33 c24
M  ZZC  34 c25
M  ZZC  35 c26
M  ZZC  36 n5
M  ZZC  37 c27
M  ZZC  38 s1
M  ZZC  39 c28
M  ZZC  40 c29
M  ZZC  41 c30
M  ZZC  42 c31
M  ZZC  43 h11
M  ZZC  44 h12
M  ZZC  45 h21
M  ZZC  46 h22
M  ZZC  47 h31
M  ZZC  48 h32
M  ZZC  49 h51
M  ZZC  50 h52
M  ZZC  51 h61
M  ZZC  52 h01
M  ZZC  53 h81
M  ZZC  54 h101
M  ZZC  55 h41
M  ZZC  56 h121
M  ZZC  57 h122
M  ZZC  58 h123
M  ZZC  59 h141
M  ZZC  60 h142
M  ZZC  61 h143
M  ZZC  62 h151
M  ZZC  63 h152
M  ZZC  64 h153
M  ZZC  65 h161
M  ZZC  66 h162
M  ZZC  67 h163
M  ZZC  68 h171
M  ZZC  69 h172
M  ZZC  70 h181
M  ZZC  71 h02
M  ZZC  72 h191
M  ZZC  73 h192
M  ZZC  74 h211
M  ZZC  75 h221
M  ZZC  76 h261
M  ZZC  77 h262
M  ZZC  78 h263
M  ZZC  79 h271
M  ZZC  80 h281
M  ZZC  81 h291
M  ZZC  82 h301
M  ZZC  83 h302
M  ZZC  84 h311
M  ZZC  85 h312
M  ZZM   1 1
M  ZZI   1 112
M  ZZM   2 1
M  ZZI   2 112
M  ZZM   3 1
M  ZZI   3 112
M  ZZM   4 10
M  ZZI   4 192
M  ZZM   5 3
M  ZZI   5 121
M  ZZM   6 7
M  ZZI   6 81
M  ZZM   7 1
M  ZZI   7 112
M  ZZM   8 1
M  ZZI   8 113
M  ZZM   9 10
M  ZZI   9 211
M  ZZM  10 3
M  ZZI  10 121
M  ZZM  11 7
M  ZZI  11 81
M  ZZM  12 1
M  ZZI  12 113
M  ZZM  13 10
M  ZZI  13 192
M  ZZM  14 3
M  ZZI  14 121
M  ZZM  15 7
M  ZZI  15 81
M  ZZM  16 1
M  ZZI  16 113
M  ZZM  17 10
M  ZZI  17 211
M  ZZM  18 3
M  ZZI  18 121
M  ZZM  19 7
M  ZZI  19 81
M  ZZM  20 1
M  ZZI  20 111
M  ZZM  21 1
M  ZZI  21 110
M  ZZM  22 1
M  ZZI  22 111
M  ZZM  23 1
M  ZZI  23 111
M  ZZM  24 1
M  ZZI  24 111
M  ZZM  25 1
M  ZZI  25 112
M  ZZM  26 1
M  ZZI  26 113
M  ZZM  27 6
M  ZZI  27 60
M  ZZM  28 1
M  ZZI  28 112
M  ZZM  29 37
M  ZZI  29 124
M  ZZM  30 37
M  ZZI  30 125
M  ZZM  31 37
M  ZZI  31 125
M  ZZM  32 37
M  ZZI  32 124
M  ZZM  33 63
M  ZZI  33 104
M  ZZM  34 64
M  ZZI  34 105
M  ZZM  35 1
M  ZZI  35 111
M  ZZM  36 66
M  ZZI  36 222
M  ZZM  37 63
M  ZZI  37 104
M  ZZM  38 44
M  ZZI  38 248
M  ZZM  39 37
M  ZZI  39 125
M  ZZM  40 37
M  ZZI  40 125
M  ZZM  41 1
M  ZZI  41 112
M  ZZM  42 1
M  ZZI  42 112
M  ZZM  43 5
M  ZZI  43 1
M  ZZM  44 5
M  ZZI  44 1
M  ZZM  45 5
M  ZZI  45 1
M  ZZM  46 5
M  ZZI  46 1
M  ZZM  47 5
M  ZZI  47 1
M  ZZM  48 5
M  ZZI  48 1
M  ZZM  49 5
M  ZZI  49 1
M  ZZM  50 5
M  ZZI  50 1
M  ZZM  51 5
M  ZZI  51 1
M  ZZM  52 28
M  ZZI  52 11
M  ZZM  53 5
M  ZZI  53 1
M  ZZM  54 5
M  ZZI  54 1
M  ZZM  55 28
M  ZZI  55 11
M  ZZM  56 5
M  ZZI  56 1
M  ZZM  57 5
M  ZZI  57 1
M  ZZM  58 5
M  ZZI  58 1
M  ZZM  59 5
M  ZZI  59 1
M  ZZM  60 5
M  ZZI  60 1
M  ZZM  61 5
M  ZZI  61 1
M  ZZM  62 5
M  ZZI  62 1
M  ZZM  63 5
M  ZZI  63 1
M  ZZM  64 5
M  ZZI  64 1
M  ZZM  65 5
M  ZZI  65 1
M  ZZM  66 5
M  ZZI  66 1
M  ZZM  67 5
M  ZZI  67 1
M  ZZM  68 5
M  ZZI  68 1
M  ZZM  69 5
M  ZZI  69 1
M  ZZM  70 5
M  ZZI  70 1
M  ZZM  71 21
M  ZZI  71 20
M  ZZM  72 5
M  ZZI  72 1
M  ZZM  73 5
M  ZZI  73 1
M  ZZM  74 5
M  ZZI  74 1
M  ZZM  75 5
M  ZZI  75 1
M  ZZM  76 5
M  ZZI  76 1
M  ZZM  77 5
M  ZZI  77 1
M  ZZM  78 5
M  ZZI  78 1
M  ZZM  79 5
M  ZZI  79 1
M  ZZM  80 5
M  ZZI  80 1
M  ZZM  81 5
M  ZZI  81 1
M  ZZM  82 5
M  ZZI  82 1
M  ZZM  83 5
M  ZZI  83 1
M  ZZM  84 5
M  ZZI  84 1
M  ZZM  85 5
M  ZZI  85 1
M  END
> <IX>
1

> <NAME>
VHL_5T8E_59.pdb

> <Score>
-19.436089

> <Natom>
85

> <Nflex>
11

> <Hbond>
-6.632062

> <Hphob>
-8.48215

> <VwInt>
-37.590582

> <Dsolv>
20.323534

> <SolEl>
17.28669

> <Eintl>
12.274641

> <RecConf>
ND

> <projPath>
VHL_maps/

> <NAME_>
VHL_5T8E_59.pdb

$$$$
