VHL_4QNQ_11.pdb
  MOLSOFT 04032206403D

 68 70  0  0  1  0  0  0  0  0999 V2000
   17.3358   -6.0671   -4.6790 C   0  0  0  0  0  0  0  0  0  0  0  0
   16.5076   -4.9891   -4.0330 C   0  0  0  0  0  0  0  0  0  0  0  0
   15.4049   -5.2068   -3.5555 O   0  0  0  0  0  0  0  0  0  0  0  0
   17.1027   -3.7460   -4.0753 N   0  0  0  0  0  0  0  0  0  0  0  0
   16.3689   -2.5253   -3.7281 C   0  0  1  0  0  0  0  0  0  0  0  0
   16.6765   -1.9698   -2.3047 C   0  0  0  0  0  0  0  0  0  0  0  0
   15.7333   -0.7983   -1.9899 C   0  0  0  0  0  0  0  0  0  0  0  0
   16.4331   -3.0601   -1.2471 C   0  0  0  0  0  0  0  0  0  0  0  0
   18.1220   -1.4744   -2.1598 C   0  0  0  0  0  0  0  0  0  0  0  0
   16.6762   -1.5437   -4.8782 C   0  0  0  0  0  0  0  0  0  0  0  0
   17.8319   -1.2841   -5.1940 O   0  0  0  0  0  0  0  0  0  0  0  0
   15.5832   -1.0189   -5.5705 N   0  0  0  0  0  0  0  0  0  0  0  0
   15.7564   -0.2496   -6.7969 C   0  0  2  0  0  0  0  0  0  0  0  0
   16.0973    1.2090   -6.4802 C   0  0  0  0  0  0  0  0  0  0  0  0
   15.2854    1.9929   -6.0071 O   0  0  0  0  0  0  0  0  0  0  0  0
   17.4257    1.5189   -6.7050 N   0  0  0  0  0  0  0  0  0  0  0  0
   18.0130    2.7893   -6.2923 C   0  0  1  0  0  0  0  0  0  0  0  0
   18.1481    2.8416   -4.7676 C   0  0  0  0  0  0  0  0  0  0  0  0
   19.3724    3.0540   -6.9143 C   0  0  0  0  0  0  0  0  0  0  0  0
   19.7685    4.3534   -7.2329 C   0  0  0  0  0  0  0  0  0  0  0  0
   21.0521    4.6262   -7.6866 C   0  0  0  0  0  0  0  0  0  0  0  0
   21.9779    3.6018   -7.8362 C   0  0  0  0  0  0  0  0  0  0  0  0
   23.3479    3.8540   -8.2518 C   0  0  0  0  0  0  0  0  0  0  0  0
   24.4582    4.2206   -7.5047 C   0  0  0  0  0  0  0  0  0  0  0  0
   24.4957    4.5047   -6.0522 C   0  0  0  0  0  0  0  0  0  0  0  0
   25.6389    4.3016   -8.2155 N   0  0  0  0  0  0  0  0  0  0  0  0
   25.4137    4.0195   -9.4791 C   0  0  0  0  0  0  0  0  0  0  0  0
   23.8005    3.6501   -9.8954 S   0  0  0  0  0  0  0  0  0  0  0  0
   21.5773    2.3082   -7.5485 C   0  0  0  0  0  0  0  0  0  0  0  0
   20.3022    2.0371   -7.1004 C   0  0  0  0  0  0  0  0  0  0  0  0
   14.4152   -0.3777   -7.4950 C   0  0  0  0  0  0  0  0  0  0  0  0
   13.4045   -0.5205   -6.3685 C   0  0  1  0  0  0  0  0  0  0  0  0
   12.2704   -1.2796   -6.7883 O   0  0  0  0  0  0  0  0  0  0  0  0
   14.1780   -1.2784   -5.3032 C   0  0  0  0  0  0  0  0  0  0  0  0
   18.3283   -6.1078   -4.2279 H   0  0  0  0  0  0  0  0  0  0  0  0
   17.4345   -5.8598   -5.7487 H   0  0  0  0  0  0  0  0  0  0  0  0
   16.8534   -7.0393   -4.5520 H   0  0  0  0  0  0  0  0  0  0  0  0
   18.0476   -3.6645   -4.4415 H   0  0  0  0  0  0  0  0  0  0  0  0
   15.3104   -2.7924   -3.7517 H   0  0  0  0  0  0  0  0  0  0  0  0
   15.8643    0.0228   -2.7024 H   0  0  0  0  0  0  0  0  0  0  0  0
   15.9214   -0.3902   -0.9913 H   0  0  0  0  0  0  0  0  0  0  0  0
   14.6816   -1.0978   -2.0357 H   0  0  0  0  0  0  0  0  0  0  0  0
   16.5603   -2.6693   -0.2324 H   0  0  0  0  0  0  0  0  0  0  0  0
   17.1312   -3.8956   -1.3534 H   0  0  0  0  0  0  0  0  0  0  0  0
   15.4169   -3.4633   -1.3120 H   0  0  0  0  0  0  0  0  0  0  0  0
   18.3421   -1.1799   -1.1288 H   0  0  0  0  0  0  0  0  0  0  0  0
   18.3241   -0.6004   -2.7856 H   0  0  0  0  0  0  0  0  0  0  0  0
   18.8350   -2.2537   -2.4290 H   0  0  0  0  0  0  0  0  0  0  0  0
   16.5527   -0.6916   -7.4073 H   0  0  0  0  0  0  0  0  0  0  0  0
   18.0222    0.8002   -7.1036 H   0  0  0  0  0  0  0  0  0  0  0  0
   17.3153    3.5723   -6.6119 H   0  0  0  0  0  0  0  0  0  0  0  0
   18.5772    3.7905   -4.4329 H   0  0  0  0  0  0  0  0  0  0  0  0
   18.7923    2.0388   -4.3951 H   0  0  0  0  0  0  0  0  0  0  0  0
   17.1746    2.7389   -4.2755 H   0  0  0  0  0  0  0  0  0  0  0  0
   19.0756    5.1796   -7.1026 H   0  0  0  0  0  0  0  0  0  0  0  0
   21.3306    5.6521   -7.9090 H   0  0  0  0  0  0  0  0  0  0  0  0
   23.8761    5.3730   -5.8107 H   0  0  0  0  0  0  0  0  0  0  0  0
   25.5159    4.7144   -5.7178 H   0  0  0  0  0  0  0  0  0  0  0  0
   24.1293    3.6498   -5.4787 H   0  0  0  0  0  0  0  0  0  0  0  0
   26.1995    4.0194  -10.2209 H   0  0  0  0  0  0  0  0  0  0  0  0
   22.2697    1.4841   -7.6642 H   0  0  0  0  0  0  0  0  0  0  0  0
   20.0521    1.0080   -6.8749 H   0  0  0  0  0  0  0  0  0  0  0  0
   14.1814    0.4618   -8.1585 H   0  0  0  0  0  0  0  0  0  0  0  0
   14.4219   -1.2889   -8.1004 H   0  0  0  0  0  0  0  0  0  0  0  0
   13.0684    0.4531   -5.9953 H   0  0  0  0  0  0  0  0  0  0  0  0
   11.8003   -0.7733   -7.4764 H   0  0  0  0  0  0  0  0  0  0  0  0
   13.9898   -2.3557   -5.3551 H   0  0  0  0  0  0  0  0  0  0  0  0
   13.9172   -0.9382   -4.2973 H   0  0  0  0  0  0  0  0  0  0  0  0
  1 35  1  0  0  0  0
  1 36  1  0  0  0  0
  1 37  1  0  0  0  0
  1  2  1  0  0  0  0
  2  3  2  0  0  0  0
  2  4  1  0  0  0  0
  4 38  1  0  0  0  0
  5  4  1  0  0  0  0
  5 39  1  0  0  0  0
  5  6  1  0  0  0  0
  5 10  1  0  0  0  0
  6  7  1  0  0  0  0
  6  8  1  0  0  0  0
  6  9  1  0  0  0  0
  7 40  1  0  0  0  0
  7 41  1  0  0  0  0
  7 42  1  0  0  0  0
  8 43  1  0  0  0  0
  8 44  1  0  0  0  0
  8 45  1  0  0  0  0
  9 46  1  0  0  0  0
  9 47  1  0  0  0  0
  9 48  1  0  0  0  0
 10 11  2  0  0  0  0
 10 12  1  0  0  0  0
 12 34  1  0  0  0  0
 13 12  1  0  0  0  0
 13 31  1  0  0  0  0
 13 49  1  0  0  0  0
 13 14  1  0  0  0  0
 14 15  2  0  0  0  0
 14 16  1  0  0  0  0
 16 50  1  0  0  0  0
 17 16  1  0  0  0  0
 17 51  1  0  0  0  0
 17 18  1  0  0  0  0
 17 19  1  0  0  0  0
 18 52  1  0  0  0  0
 18 53  1  0  0  0  0
 18 54  1  0  0  0  0
 19 20  1  0  0  0  0
 19 30  2  0  0  0  0
 20 55  1  0  0  0  0
 20 21  2  0  0  0  0
 21 56  1  0  0  0  0
 21 22  1  0  0  0  0
 22 29  2  0  0  0  0
 22 23  1  0  0  0  0
 23 24  2  0  0  0  0
 23 28  1  0  0  0  0
 24 25  1  0  0  0  0
 24 26  1  0  0  0  0
 25 57  1  0  0  0  0
 25 58  1  0  0  0  0
 25 59  1  0  0  0  0
 26 27  2  0  0  0  0
 27 60  1  0  0  0  0
 27 28  1  0  0  0  0
 29 61  1  0  0  0  0
 29 30  1  0  0  0  0
 30 62  1  0  0  0  0
 32 31  1  0  0  0  0
 31 63  1  0  0  0  0
 31 64  1  0  0  0  0
 32 34  1  0  0  0  0
 32 65  1  0  0  0  0
 32 33  1  0  0  0  0
 33 66  1  0  0  0  0
 34 67  1  0  0  0  0
 34 68  1  0  0  0  0
M  ZZC   1 c1
M  ZZC   2 c2
M  ZZC   3 o1
M  ZZC   4 n1
M  ZZC   5 c3
M  ZZC   6 c4
M  ZZC   7 c5
M  ZZC   8 c6
M  ZZC   9 c7
M  ZZC  10 c8
M  ZZC  11 o2
M  ZZC  12 n2
M  ZZC  13 c9
M  ZZC  14 c10
M  ZZC  15 o3
M  ZZC  16 n3
M  ZZC  17 c11
M  ZZC  18 c12
M  ZZC  19 c13
M  ZZC  20 c14
M  ZZC  21 c15
M  ZZC  22 c16
M  ZZC  23 c17
M  ZZC  24 c18
M  ZZC  25 c19
M  ZZC  26 n4
M  ZZC  27 c20
M  ZZC  28 s1
M  ZZC  29 c21
M  ZZC  30 c22
M  ZZC  31 c23
M  ZZC  32 c24
M  ZZC  33 o4
M  ZZC  34 c25
M  ZZC  35 h11
M  ZZC  36 h12
M  ZZC  37 h13
M  ZZC  38 h01
M  ZZC  39 h31
M  ZZC  40 h51
M  ZZC  41 h52
M  ZZC  42 h53
M  ZZC  43 h61
M  ZZC  44 h62
M  ZZC  45 h63
M  ZZC  46 h71
M  ZZC  47 h72
M  ZZC  48 h73
M  ZZC  49 h91
M  ZZC  50 h02
M  ZZC  51 h111
M  ZZC  52 h121
M  ZZC  53 h122
M  ZZC  54 h123
M  ZZC  55 h141
M  ZZC  56 h151
M  ZZC  57 h191
M  ZZC  58 h192
M  ZZC  59 h193
M  ZZC  60 h201
M  ZZC  61 h211
M  ZZC  62 h221
M  ZZC  63 h231
M  ZZC  64 h232
M  ZZC  65 h241
M  ZZC  66 h41
M  ZZC  67 h251
M  ZZC  68 h252
M  ZZM   1 1
M  ZZI   1 111
M  ZZM   2 3
M  ZZI   2 121
M  ZZM   3 7
M  ZZI   3 81
M  ZZM   4 10
M  ZZI   4 211
M  ZZM   5 1
M  ZZI   5 113
M  ZZM   6 1
M  ZZI   6 110
M  ZZM   7 1
M  ZZI   7 111
M  ZZM   8 1
M  ZZI   8 111
M  ZZM   9 1
M  ZZI   9 111
M  ZZM  10 3
M  ZZI  10 121
M  ZZM  11 7
M  ZZI  11 81
M  ZZM  12 10
M  ZZI  12 192
M  ZZM  13 1
M  ZZI  13 113
M  ZZM  14 3
M  ZZI  14 121
M  ZZM  15 7
M  ZZI  15 81
M  ZZM  16 10
M  ZZI  16 211
M  ZZM  17 1
M  ZZI  17 113
M  ZZM  18 1
M  ZZI  18 111
M  ZZM  19 37
M  ZZI  19 124
M  ZZM  20 37
M  ZZI  20 125
M  ZZM  21 37
M  ZZI  21 125
M  ZZM  22 37
M  ZZI  22 124
M  ZZM  23 63
M  ZZI  23 104
M  ZZM  24 64
M  ZZI  24 105
M  ZZM  25 1
M  ZZI  25 111
M  ZZM  26 66
M  ZZI  26 222
M  ZZM  27 63
M  ZZI  27 104
M  ZZM  28 44
M  ZZI  28 248
M  ZZM  29 37
M  ZZI  29 125
M  ZZM  30 37
M  ZZI  30 125
M  ZZM  31 1
M  ZZI  31 112
M  ZZM  32 1
M  ZZI  32 113
M  ZZM  33 6
M  ZZI  33 60
M  ZZM  34 1
M  ZZI  34 112
M  ZZM  35 5
M  ZZI  35 1
M  ZZM  36 5
M  ZZI  36 1
M  ZZM  37 5
M  ZZI  37 1
M  ZZM  38 28
M  ZZI  38 11
M  ZZM  39 5
M  ZZI  39 1
M  ZZM  40 5
M  ZZI  40 1
M  ZZM  41 5
M  ZZI  41 1
M  ZZM  42 5
M  ZZI  42 1
M  ZZM  43 5
M  ZZI  43 1
M  ZZM  44 5
M  ZZI  44 1
M  ZZM  45 5
M  ZZI  45 1
M  ZZM  46 5
M  ZZI  46 1
M  ZZM  47 5
M  ZZI  47 1
M  ZZM  48 5
M  ZZI  48 1
M  ZZM  49 5
M  ZZI  49 1
M  ZZM  50 28
M  ZZI  50 11
M  ZZM  51 5
M  ZZI  51 1
M  ZZM  52 5
M  ZZI  52 1
M  ZZM  53 5
M  ZZI  53 1
M  ZZM  54 5
M  ZZI  54 1
M  ZZM  55 5
M  ZZI  55 1
M  ZZM  56 5
M  ZZI  56 1
M  ZZM  57 5
M  ZZI  57 1
M  ZZM  58 5
M  ZZI  58 1
M  ZZM  59 5
M  ZZI  59 1
M  ZZM  60 5
M  ZZI  60 1
M  ZZM  61 5
M  ZZI  61 1
M  ZZM  62 5
M  ZZI  62 1
M  ZZM  63 5
M  ZZI  63 1
M  ZZM  64 5
M  ZZI  64 1
M  ZZM  65 5
M  ZZI  65 1
M  ZZM  66 21
M  ZZI  66 20
M  ZZM  67 5
M  ZZI  67 1
M  ZZM  68 5
M  ZZI  68 1
M  END
> <IX>
1

> <NAME>
VHL_4QNQ_11.pdb

> <Score>
-16.596674

> <Natom>
68

> <Nflex>
8

> <Hbond>
-6.533375

> <Hphob>
-6.338638

> <VwInt>
-31.039932

> <Dsolv>
18.341204

> <SolEl>
20.003355

> <Eintl>
5.769111

> <RecConf>
ND

> <projPath>
VHL_maps/

> <NAME_>
VHL_4QNQ_11.pdb

$$$$
