VHL_1ERR_20.pdb
  MOLSOFT 04032206373D

 68 70  0  0  1  0  0  0  0  0999 V2000
   16.6819   -6.1716   -5.9034 O   0  0  0  0  0  0  0  0  0  0  0  0
   17.7166   -5.5791   -5.6378 C   0  0  0  0  0  0  0  0  0  0  0  0
   17.7959   -4.2889   -5.1424 N   0  0  0  0  0  0  0  0  0  0  0  0
   16.6484   -3.3971   -4.9534 C   0  0  1  0  0  0  0  0  0  0  0  0
   16.0009   -3.4987   -3.5309 C   0  0  0  0  0  0  0  0  0  0  0  0
   16.8925   -2.8744   -2.4472 C   0  0  0  0  0  0  0  0  0  0  0  0
   15.7415   -4.9585   -3.1274 C   0  0  0  0  0  0  0  0  0  0  0  0
   14.6395   -2.7880   -3.5129 C   0  0  0  0  0  0  0  0  0  0  0  0
   17.1815   -1.9837   -5.2793 C   0  0  0  0  0  0  0  0  0  0  0  0
   18.2914   -1.6392   -4.8990 O   0  0  0  0  0  0  0  0  0  0  0  0
   16.3727   -1.0852   -5.9786 N   0  0  0  0  0  0  0  0  0  0  0  0
   16.8554    0.2727   -6.2572 C   0  0  2  0  0  0  0  0  0  0  0  0
   16.7938    1.2249   -5.0613 C   0  0  0  0  0  0  0  0  0  0  0  0
   17.5113    2.2131   -5.0015 O   0  0  0  0  0  0  0  0  0  0  0  0
   15.7572    0.9811   -4.1801 N   0  0  0  0  0  0  0  0  0  0  0  0
   15.4371    1.8647   -3.0714 C   0  0  1  0  0  0  0  0  0  0  0  0
   14.3255    2.8324   -3.4804 C   0  0  0  0  0  0  0  0  0  0  0  0
   15.1305    1.0602   -1.8225 C   0  0  0  0  0  0  0  0  0  0  0  0
   16.1755    0.7010   -0.9753 C   0  0  0  0  0  0  0  0  0  0  0  0
   15.9473   -0.0211    0.1828 C   0  0  0  0  0  0  0  0  0  0  0  0
   14.6624   -0.4147    0.5314 C   0  0  0  0  0  0  0  0  0  0  0  0
   14.4221   -1.1400    1.7699 C   0  0  0  0  0  0  0  0  0  0  0  0
   14.8524   -2.3897    2.1942 C   0  0  0  0  0  0  0  0  0  0  0  0
   15.7175   -3.3330    1.4544 C   0  0  0  0  0  0  0  0  0  0  0  0
   14.3936   -2.7764    3.4383 N   0  0  0  0  0  0  0  0  0  0  0  0
   13.6682   -1.8134    3.9591 C   0  0  0  0  0  0  0  0  0  0  0  0
   13.4954   -0.4038    3.0140 S   0  0  0  0  0  0  0  0  0  0  0  0
   13.6161   -0.0901   -0.3245 C   0  0  0  0  0  0  0  0  0  0  0  0
   13.8459    0.6347   -1.4826 C   0  0  0  0  0  0  0  0  0  0  0  0
   15.9397    0.8026   -7.3552 C   0  0  0  0  0  0  0  0  0  0  0  0
   15.3544   -0.4440   -7.9837 C   0  0  1  0  0  0  0  0  0  0  0  0
   16.2278   -0.9595   -8.9992 O   0  0  0  0  0  0  0  0  0  0  0  0
   15.2485   -1.4238   -6.8279 C   0  0  0  0  0  0  0  0  0  0  0  0
   19.0560   -6.2357   -5.8422 C   0  0  0  0  0  0  0  0  0  0  0  0
   18.7128   -3.8986   -4.9522 H   0  0  0  0  0  0  0  0  0  0  0  0
   15.9258   -3.6911   -5.7069 H   0  0  0  0  0  0  0  0  0  0  0  0
   17.8846   -3.3316   -2.4327 H   0  0  0  0  0  0  0  0  0  0  0  0
   16.4600   -3.0092   -1.4521 H   0  0  0  0  0  0  0  0  0  0  0  0
   17.0243   -1.7989   -2.5915 H   0  0  0  0  0  0  0  0  0  0  0  0
   15.1148   -5.4660   -3.8623 H   0  0  0  0  0  0  0  0  0  0  0  0
   15.2209   -5.0250   -2.1663 H   0  0  0  0  0  0  0  0  0  0  0  0
   16.6676   -5.5299   -3.0223 H   0  0  0  0  0  0  0  0  0  0  0  0
   14.1442   -2.8948   -2.5433 H   0  0  0  0  0  0  0  0  0  0  0  0
   13.9636   -3.1802   -4.2711 H   0  0  0  0  0  0  0  0  0  0  0  0
   14.7425   -1.7158   -3.7083 H   0  0  0  0  0  0  0  0  0  0  0  0
   17.8958    0.2126   -6.5943 H   0  0  0  0  0  0  0  0  0  0  0  0
   15.1775    0.1657   -4.3315 H   0  0  0  0  0  0  0  0  0  0  0  0
   16.3195    2.4801   -2.8630 H   0  0  0  0  0  0  0  0  0  0  0  0
   14.6519    3.4696   -4.3084 H   0  0  0  0  0  0  0  0  0  0  0  0
   14.0339    3.4838   -2.6500 H   0  0  0  0  0  0  0  0  0  0  0  0
   13.4320    2.3050   -3.8276 H   0  0  0  0  0  0  0  0  0  0  0  0
   17.1946    0.9931   -1.2136 H   0  0  0  0  0  0  0  0  0  0  0  0
   16.7892   -0.2619    0.8253 H   0  0  0  0  0  0  0  0  0  0  0  0
   15.1789   -3.7590    0.6035 H   0  0  0  0  0  0  0  0  0  0  0  0
   16.0318   -4.1658    2.0891 H   0  0  0  0  0  0  0  0  0  0  0  0
   16.6097   -2.8246    1.0783 H   0  0  0  0  0  0  0  0  0  0  0  0
   13.2083   -1.8984    4.9331 H   0  0  0  0  0  0  0  0  0  0  0  0
   12.6021   -0.4014   -0.0909 H   0  0  0  0  0  0  0  0  0  0  0  0
   12.9991    0.8687   -2.1182 H   0  0  0  0  0  0  0  0  0  0  0  0
   15.1353    1.4192   -6.9376 H   0  0  0  0  0  0  0  0  0  0  0  0
   16.4921    1.4175   -8.0721 H   0  0  0  0  0  0  0  0  0  0  0  0
   14.3850   -0.2390   -8.4359 H   0  0  0  0  0  0  0  0  0  0  0  0
   17.1421   -0.9051   -8.6611 H   0  0  0  0  0  0  0  0  0  0  0  0
   15.2955   -2.4600   -7.1693 H   0  0  0  0  0  0  0  0  0  0  0  0
   14.3344   -1.2587   -6.2480 H   0  0  0  0  0  0  0  0  0  0  0  0
   19.1255   -6.5963   -6.8717 H   0  0  0  0  0  0  0  0  0  0  0  0
   19.1518   -7.0824   -5.1576 H   0  0  0  0  0  0  0  0  0  0  0  0
   19.8787   -5.5379   -5.6713 H   0  0  0  0  0  0  0  0  0  0  0  0
  1  2  2  0  0  0  0
  2  3  1  0  0  0  0
  2 34  1  0  0  0  0
  4  3  1  0  0  0  0
  3 35  1  0  0  0  0
  4  5  1  0  0  0  0
  4 36  1  0  0  0  0
  4  9  1  0  0  0  0
  5  6  1  0  0  0  0
  5  7  1  0  0  0  0
  5  8  1  0  0  0  0
  6 37  1  0  0  0  0
  6 38  1  0  0  0  0
  6 39  1  0  0  0  0
  7 40  1  0  0  0  0
  7 41  1  0  0  0  0
  7 42  1  0  0  0  0
  8 43  1  0  0  0  0
  8 44  1  0  0  0  0
  8 45  1  0  0  0  0
  9 10  2  0  0  0  0
  9 11  1  0  0  0  0
 11 33  1  0  0  0  0
 12 11  1  0  0  0  0
 12 30  1  0  0  0  0
 12 46  1  0  0  0  0
 12 13  1  0  0  0  0
 13 14  2  0  0  0  0
 13 15  1  0  0  0  0
 15 47  1  0  0  0  0
 16 15  1  0  0  0  0
 16 48  1  0  0  0  0
 16 17  1  0  0  0  0
 16 18  1  0  0  0  0
 17 49  1  0  0  0  0
 17 50  1  0  0  0  0
 17 51  1  0  0  0  0
 18 19  1  0  0  0  0
 18 29  2  0  0  0  0
 19 52  1  0  0  0  0
 19 20  2  0  0  0  0
 20 53  1  0  0  0  0
 20 21  1  0  0  0  0
 21 28  2  0  0  0  0
 21 22  1  0  0  0  0
 22 23  2  0  0  0  0
 22 27  1  0  0  0  0
 23 24  1  0  0  0  0
 23 25  1  0  0  0  0
 24 54  1  0  0  0  0
 24 55  1  0  0  0  0
 24 56  1  0  0  0  0
 25 26  2  0  0  0  0
 26 57  1  0  0  0  0
 26 27  1  0  0  0  0
 28 58  1  0  0  0  0
 28 29  1  0  0  0  0
 29 59  1  0  0  0  0
 31 30  1  0  0  0  0
 30 60  1  0  0  0  0
 30 61  1  0  0  0  0
 31 33  1  0  0  0  0
 31 62  1  0  0  0  0
 31 32  1  0  0  0  0
 32 63  1  0  0  0  0
 33 64  1  0  0  0  0
 33 65  1  0  0  0  0
 34 66  1  0  0  0  0
 34 67  1  0  0  0  0
 34 68  1  0  0  0  0
M  ZZC   1 o1
M  ZZC   2 c1
M  ZZC   3 n1
M  ZZC   4 c2
M  ZZC   5 c3
M  ZZC   6 c4
M  ZZC   7 c5
M  ZZC   8 c6
M  ZZC   9 c7
M  ZZC  10 o2
M  ZZC  11 n2
M  ZZC  12 c8
M  ZZC  13 c9
M  ZZC  14 o3
M  ZZC  15 n3
M  ZZC  16 c10
M  ZZC  17 c11
M  ZZC  18 c12
M  ZZC  19 c13
M  ZZC  20 c14
M  ZZC  21 c15
M  ZZC  22 c16
M  ZZC  23 c17
M  ZZC  24 c18
M  ZZC  25 n4
M  ZZC  26 c19
M  ZZC  27 s1
M  ZZC  28 c20
M  ZZC  29 c21
M  ZZC  30 c22
M  ZZC  31 c23
M  ZZC  32 o4
M  ZZC  33 c24
M  ZZC  34 c25
M  ZZC  35 h11
M  ZZC  36 h21
M  ZZC  37 h41
M  ZZC  38 h42
M  ZZC  39 h43
M  ZZC  40 h51
M  ZZC  41 h52
M  ZZC  42 h53
M  ZZC  43 h61
M  ZZC  44 h62
M  ZZC  45 h63
M  ZZC  46 h81
M  ZZC  47 h31
M  ZZC  48 h101
M  ZZC  49 h111
M  ZZC  50 h112
M  ZZC  51 h113
M  ZZC  52 h131
M  ZZC  53 h141
M  ZZC  54 h181
M  ZZC  55 h182
M  ZZC  56 h183
M  ZZC  57 h191
M  ZZC  58 h201
M  ZZC  59 h211
M  ZZC  60 h221
M  ZZC  61 h222
M  ZZC  62 h231
M  ZZC  63 h01
M  ZZC  64 h241
M  ZZC  65 h242
M  ZZC  66 h251
M  ZZC  67 h252
M  ZZC  68 h253
M  ZZM   1 7
M  ZZI   1 81
M  ZZM   2 3
M  ZZI   2 121
M  ZZM   3 10
M  ZZI   3 211
M  ZZM   4 1
M  ZZI   4 113
M  ZZM   5 1
M  ZZI   5 110
M  ZZM   6 1
M  ZZI   6 111
M  ZZM   7 1
M  ZZI   7 111
M  ZZM   8 1
M  ZZI   8 111
M  ZZM   9 3
M  ZZI   9 121
M  ZZM  10 7
M  ZZI  10 81
M  ZZM  11 10
M  ZZI  11 192
M  ZZM  12 1
M  ZZI  12 113
M  ZZM  13 3
M  ZZI  13 121
M  ZZM  14 7
M  ZZI  14 81
M  ZZM  15 10
M  ZZI  15 211
M  ZZM  16 1
M  ZZI  16 113
M  ZZM  17 1
M  ZZI  17 111
M  ZZM  18 37
M  ZZI  18 124
M  ZZM  19 37
M  ZZI  19 125
M  ZZM  20 37
M  ZZI  20 125
M  ZZM  21 37
M  ZZI  21 124
M  ZZM  22 63
M  ZZI  22 104
M  ZZM  23 64
M  ZZI  23 105
M  ZZM  24 1
M  ZZI  24 111
M  ZZM  25 66
M  ZZI  25 222
M  ZZM  26 63
M  ZZI  26 104
M  ZZM  27 44
M  ZZI  27 248
M  ZZM  28 37
M  ZZI  28 125
M  ZZM  29 37
M  ZZI  29 125
M  ZZM  30 1
M  ZZI  30 112
M  ZZM  31 1
M  ZZI  31 113
M  ZZM  32 6
M  ZZI  32 60
M  ZZM  33 1
M  ZZI  33 112
M  ZZM  34 1
M  ZZI  34 111
M  ZZM  35 28
M  ZZI  35 11
M  ZZM  36 5
M  ZZI  36 1
M  ZZM  37 5
M  ZZI  37 1
M  ZZM  38 5
M  ZZI  38 1
M  ZZM  39 5
M  ZZI  39 1
M  ZZM  40 5
M  ZZI  40 1
M  ZZM  41 5
M  ZZI  41 1
M  ZZM  42 5
M  ZZI  42 1
M  ZZM  43 5
M  ZZI  43 1
M  ZZM  44 5
M  ZZI  44 1
M  ZZM  45 5
M  ZZI  45 1
M  ZZM  46 5
M  ZZI  46 1
M  ZZM  47 28
M  ZZI  47 11
M  ZZM  48 5
M  ZZI  48 1
M  ZZM  49 5
M  ZZI  49 1
M  ZZM  50 5
M  ZZI  50 1
M  ZZM  51 5
M  ZZI  51 1
M  ZZM  52 5
M  ZZI  52 1
M  ZZM  53 5
M  ZZI  53 1
M  ZZM  54 5
M  ZZI  54 1
M  ZZM  55 5
M  ZZI  55 1
M  ZZM  56 5
M  ZZI  56 1
M  ZZM  57 5
M  ZZI  57 1
M  ZZM  58 5
M  ZZI  58 1
M  ZZM  59 5
M  ZZI  59 1
M  ZZM  60 5
M  ZZI  60 1
M  ZZM  61 5
M  ZZI  61 1
M  ZZM  62 5
M  ZZI  62 1
M  ZZM  63 21
M  ZZI  63 20
M  ZZM  64 5
M  ZZI  64 1
M  ZZM  65 5
M  ZZI  65 1
M  ZZM  66 5
M  ZZI  66 1
M  ZZM  67 5
M  ZZI  67 1
M  ZZM  68 5
M  ZZI  68 1
M  END
> <IX>
1

> <NAME>
VHL_1ERR_20.pdb

> <Score>
-25.542757

> <Natom>
68

> <Nflex>
8

> <Hbond>
-7.90689

> <Hphob>
-7.016196

> <VwInt>
-27.524021

> <Dsolv>
17.17453

> <SolEl>
9.492902

> <Eintl>
4.567222

> <RecConf>
ND

> <projPath>
VHL_maps/

> <NAME_>
VHL_1ERR_20.pdb

$$$$
