VHL_5T8E_7.pdb
  MOLSOFT 04032206453D

 75 78  0  0  1  0  0  0  0  0999 V2000
   14.7786   -0.6692    2.8433 C   0  0  0  0  0  0  0  0  0  0  0  0
   13.5047   -0.7400    2.0127 C   0  0  0  0  0  0  0  0  0  0  0  0
   13.7888   -1.2760    0.6191 C   0  0  0  0  0  0  0  0  0  0  0  0
   14.8478   -0.5085   -0.0327 N   0  0  0  0  0  0  0  0  0  0  0  0
   14.7683    0.0594   -1.3053 C   0  0  0  0  0  0  0  0  0  0  0  0
   15.7245    0.5848   -1.8581 O   0  0  0  0  0  0  0  0  0  0  0  0
   13.4138   -0.0153   -1.9872 C   0  0  0  0  0  0  0  0  0  0  0  0
   13.3548    0.7237   -3.3339 C   0  0  2  0  0  0  0  0  0  0  0  0
   14.2412    0.0775   -4.2896 N   0  0  0  0  0  0  0  0  0  0  0  0
   13.7956   -0.6915   -5.3532 C   0  0  0  0  0  0  0  0  0  0  0  0
   12.6181   -0.8914   -5.6146 O   0  0  0  0  0  0  0  0  0  0  0  0
   14.8975   -1.2272   -6.2687 C   0  0  2  0  0  0  0  0  0  0  0  0
   16.2339   -1.0878   -5.7078 N   0  0  0  0  0  0  0  0  0  0  0  0
   16.9144   -1.9729   -4.8734 C   0  0  0  0  0  0  0  0  0  0  0  0
   18.0782   -1.7721   -4.5593 O   0  0  0  0  0  0  0  0  0  0  0  0
   16.1517   -3.2002   -4.3630 C   0  0  2  0  0  0  0  0  0  0  0  0
   15.8746   -3.0545   -2.8512 C   0  0  0  0  0  0  0  0  0  0  0  0
   17.0291   -3.4617   -1.9437 C   0  0  0  0  0  0  0  0  0  0  0  0
   14.6184   -3.8161   -2.4438 C   0  0  0  0  0  0  0  0  0  0  0  0
   16.8659   -4.4546   -4.7630 C   0  0  0  0  0  0  0  0  0  0  0  0
   16.2359   -5.6318   -4.4854 O   0  0  0  0  0  0  0  0  0  0  0  0
   17.0239   -6.6998   -4.9237 N   0  0  0  0  0  0  0  0  0  0  0  0
   18.1146   -6.1386   -5.4542 C   0  0  0  0  0  0  0  0  0  0  0  0
   19.1908   -6.9764   -6.0136 C   0  0  0  0  0  0  0  0  0  0  0  0
   18.0532   -4.7334   -5.3956 C   0  0  0  0  0  0  0  0  0  0  0  0
   16.9028    0.0859   -6.2337 C   0  0  0  0  0  0  0  0  0  0  0  0
   15.9795    0.6465   -7.3115 C   0  0  1  0  0  0  0  0  0  0  0  0
   16.6734    0.9155   -8.5260 O   0  0  0  0  0  0  0  0  0  0  0  0
   14.9537   -0.4409   -7.5627 C   0  0  0  0  0  0  0  0  0  0  0  0
   13.5626    2.2333   -3.2893 C   0  0  0  0  0  0  0  0  0  0  0  0
   13.4815    2.9810   -2.1098 C   0  0  0  0  0  0  0  0  0  0  0  0
   13.6488    4.3546   -2.1150 C   0  0  0  0  0  0  0  0  0  0  0  0
   13.8770    5.0261   -3.2985 C   0  0  0  0  0  0  0  0  0  0  0  0
   13.9343    4.3143   -4.4791 C   0  0  0  0  0  0  0  0  0  0  0  0
   13.7726    2.9404   -4.4746 C   0  0  0  0  0  0  0  0  0  0  0  0
   16.0983   -0.4247    0.7149 C   0  0  0  0  0  0  0  0  0  0  0  0
   15.8589    0.1232    2.1160 C   0  0  0  0  0  0  0  0  0  0  0  0
   14.5648   -0.2080    3.8125 H   0  0  0  0  0  0  0  0  0  0  0  0
   15.1400   -1.6832    3.0467 H   0  0  0  0  0  0  0  0  0  0  0  0
   12.7686   -1.3754    2.5149 H   0  0  0  0  0  0  0  0  0  0  0  0
   13.0705    0.2627    1.9333 H   0  0  0  0  0  0  0  0  0  0  0  0
   14.1402   -2.3117    0.6808 H   0  0  0  0  0  0  0  0  0  0  0  0
   12.8680   -1.2847    0.0340 H   0  0  0  0  0  0  0  0  0  0  0  0
   13.1830   -1.0738   -2.1508 H   0  0  0  0  0  0  0  0  0  0  0  0
   12.6606    0.3907   -1.3048 H   0  0  0  0  0  0  0  0  0  0  0  0
   12.3426    0.5813   -3.7154 H   0  0  0  0  0  0  0  0  0  0  0  0
   15.2399    0.1860   -4.1363 H   0  0  0  0  0  0  0  0  0  0  0  0
   14.6849   -2.2750   -6.4840 H   0  0  0  0  0  0  0  0  0  0  0  0
   15.1809   -3.2261   -4.8505 H   0  0  0  0  0  0  0  0  0  0  0  0
   15.6793   -1.9998   -2.6579 H   0  0  0  0  0  0  0  0  0  0  0  0
   17.1768   -4.5414   -1.9707 H   0  0  0  0  0  0  0  0  0  0  0  0
   16.8154   -3.1959   -0.9047 H   0  0  0  0  0  0  0  0  0  0  0  0
   17.9617   -2.9659   -2.2230 H   0  0  0  0  0  0  0  0  0  0  0  0
   14.3830   -3.6321   -1.3911 H   0  0  0  0  0  0  0  0  0  0  0  0
   14.7633   -4.8923   -2.5700 H   0  0  0  0  0  0  0  0  0  0  0  0
   13.7482   -3.5314   -3.0423 H   0  0  0  0  0  0  0  0  0  0  0  0
   18.7626   -7.7771   -6.6178 H   0  0  0  0  0  0  0  0  0  0  0  0
   19.7887   -7.4300   -5.2191 H   0  0  0  0  0  0  0  0  0  0  0  0
   19.8544   -6.3885   -6.6549 H   0  0  0  0  0  0  0  0  0  0  0  0
   18.7884   -4.0289   -5.7545 H   0  0  0  0  0  0  0  0  0  0  0  0
   17.0439    0.8017   -5.4171 H   0  0  0  0  0  0  0  0  0  0  0  0
   17.8958   -0.1848   -6.5983 H   0  0  0  0  0  0  0  0  0  0  0  0
   15.5000    1.5714   -6.9773 H   0  0  0  0  0  0  0  0  0  0  0  0
   17.3508    0.2214   -8.6443 H   0  0  0  0  0  0  0  0  0  0  0  0
   15.2862   -1.0901   -8.3805 H   0  0  0  0  0  0  0  0  0  0  0  0
   13.9874   -0.0201   -7.8591 H   0  0  0  0  0  0  0  0  0  0  0  0
   13.2879    2.5082   -1.1541 H   0  0  0  0  0  0  0  0  0  0  0  0
   13.5957    4.9091   -1.1840 H   0  0  0  0  0  0  0  0  0  0  0  0
   13.9990    6.1045   -3.3028 H   0  0  0  0  0  0  0  0  0  0  0  0
   14.0922    4.8364   -5.4177 H   0  0  0  0  0  0  0  0  0  0  0  0
   13.7997    2.4207   -5.4267 H   0  0  0  0  0  0  0  0  0  0  0  0
   16.5203   -1.4340    0.7681 H   0  0  0  0  0  0  0  0  0  0  0  0
   16.8252    0.2019    0.1898 H   0  0  0  0  0  0  0  0  0  0  0  0
   15.5495    1.1722    2.0477 H   0  0  0  0  0  0  0  0  0  0  0  0
   16.7903    0.1011    2.6902 H   0  0  0  0  0  0  0  0  0  0  0  0
  1 38  1  0  0  0  0
  1 39  1  0  0  0  0
  1  2  1  0  0  0  0
  1 37  1  0  0  0  0
  2 40  1  0  0  0  0
  2 41  1  0  0  0  0
  2  3  1  0  0  0  0
  3 42  1  0  0  0  0
  3 43  1  0  0  0  0
  3  4  1  0  0  0  0
  4 36  1  0  0  0  0
  4  5  1  0  0  0  0
  5  6  2  0  0  0  0
  5  7  1  0  0  0  0
  7 44  1  0  0  0  0
  7 45  1  0  0  0  0
  8  7  1  0  0  0  0
  8 46  1  0  0  0  0
  8 30  1  0  0  0  0
  8  9  1  0  0  0  0
  9 47  1  0  0  0  0
  9 10  1  0  0  0  0
 10 11  2  0  0  0  0
 12 10  1  0  0  0  0
 12 48  1  0  0  0  0
 12 29  1  0  0  0  0
 12 13  1  0  0  0  0
 13 26  1  0  0  0  0
 13 14  1  0  0  0  0
 14 15  2  0  0  0  0
 16 14  1  0  0  0  0
 16 49  1  0  0  0  0
 16 17  1  0  0  0  0
 16 20  1  0  0  0  0
 17 50  1  0  0  0  0
 17 19  1  0  0  0  0
 17 18  1  0  0  0  0
 18 51  1  0  0  0  0
 18 52  1  0  0  0  0
 18 53  1  0  0  0  0
 19 54  1  0  0  0  0
 19 55  1  0  0  0  0
 19 56  1  0  0  0  0
 20 25  2  0  0  0  0
 20 21  1  0  0  0  0
 21 22  1  0  0  0  0
 22 23  2  0  0  0  0
 23 25  1  0  0  0  0
 23 24  1  0  0  0  0
 24 57  1  0  0  0  0
 24 58  1  0  0  0  0
 24 59  1  0  0  0  0
 25 60  1  0  0  0  0
 27 26  1  0  0  0  0
 26 61  1  0  0  0  0
 26 62  1  0  0  0  0
 27 29  1  0  0  0  0
 27 63  1  0  0  0  0
 27 28  1  0  0  0  0
 28 64  1  0  0  0  0
 29 65  1  0  0  0  0
 29 66  1  0  0  0  0
 30 31  1  0  0  0  0
 30 35  2  0  0  0  0
 31 67  1  0  0  0  0
 31 32  2  0  0  0  0
 32 68  1  0  0  0  0
 32 33  1  0  0  0  0
 33 69  1  0  0  0  0
 33 34  2  0  0  0  0
 34 70  1  0  0  0  0
 34 35  1  0  0  0  0
 35 71  1  0  0  0  0
 36 72  1  0  0  0  0
 36 73  1  0  0  0  0
 36 37  1  0  0  0  0
 37 74  1  0  0  0  0
 37 75  1  0  0  0  0
M  ZZC   1 c1
M  ZZC   2 c2
M  ZZC   3 c3
M  ZZC   4 n1
M  ZZC   5 c4
M  ZZC   6 o1
M  ZZC   7 c5
M  ZZC   8 c6
M  ZZC   9 n2
M  ZZC  10 c7
M  ZZC  11 o2
M  ZZC  12 c8
M  ZZC  13 n3
M  ZZC  14 c9
M  ZZC  15 o3
M  ZZC  16 c10
M  ZZC  17 c11
M  ZZC  18 c12
M  ZZC  19 c13
M  ZZC  20 c14
M  ZZC  21 o4
M  ZZC  22 n4
M  ZZC  23 c15
M  ZZC  24 c16
M  ZZC  25 c17
M  ZZC  26 c18
M  ZZC  27 c19
M  ZZC  28 o5
M  ZZC  29 c20
M  ZZC  30 c21
M  ZZC  31 c22
M  ZZC  32 c23
M  ZZC  33 c24
M  ZZC  34 c25
M  ZZC  35 c26
M  ZZC  36 c27
M  ZZC  37 c28
M  ZZC  38 h11
M  ZZC  39 h12
M  ZZC  40 h21
M  ZZC  41 h22
M  ZZC  42 h31
M  ZZC  43 h32
M  ZZC  44 h51
M  ZZC  45 h52
M  ZZC  46 h61
M  ZZC  47 h01
M  ZZC  48 h81
M  ZZC  49 h101
M  ZZC  50 h111
M  ZZC  51 h121
M  ZZC  52 h122
M  ZZC  53 h123
M  ZZC  54 h131
M  ZZC  55 h132
M  ZZC  56 h133
M  ZZC  57 h161
M  ZZC  58 h162
M  ZZC  59 h163
M  ZZC  60 h171
M  ZZC  61 h181
M  ZZC  62 h182
M  ZZC  63 h191
M  ZZC  64 h02
M  ZZC  65 h201
M  ZZC  66 h202
M  ZZC  67 h221
M  ZZC  68 h231
M  ZZC  69 h241
M  ZZC  70 h251
M  ZZC  71 h261
M  ZZC  72 h271
M  ZZC  73 h272
M  ZZC  74 h281
M  ZZC  75 h282
M  ZZM   1 1
M  ZZI   1 112
M  ZZM   2 1
M  ZZI   2 112
M  ZZM   3 1
M  ZZI   3 112
M  ZZM   4 10
M  ZZI   4 192
M  ZZM   5 3
M  ZZI   5 121
M  ZZM   6 7
M  ZZI   6 81
M  ZZM   7 1
M  ZZI   7 112
M  ZZM   8 1
M  ZZI   8 113
M  ZZM   9 10
M  ZZI   9 211
M  ZZM  10 3
M  ZZI  10 121
M  ZZM  11 7
M  ZZI  11 81
M  ZZM  12 1
M  ZZI  12 113
M  ZZM  13 10
M  ZZI  13 192
M  ZZM  14 3
M  ZZI  14 121
M  ZZM  15 7
M  ZZI  15 81
M  ZZM  16 1
M  ZZI  16 113
M  ZZM  17 1
M  ZZI  17 113
M  ZZM  18 1
M  ZZI  18 111
M  ZZM  19 1
M  ZZI  19 111
M  ZZM  20 63
M  ZZI  20 104
M  ZZM  21 59
M  ZZI  21 56
M  ZZM  22 65
M  ZZI  22 207
M  ZZM  23 64
M  ZZI  23 105
M  ZZM  24 1
M  ZZI  24 111
M  ZZM  25 64
M  ZZI  25 105
M  ZZM  26 1
M  ZZI  26 112
M  ZZM  27 1
M  ZZI  27 113
M  ZZM  28 6
M  ZZI  28 60
M  ZZM  29 1
M  ZZI  29 112
M  ZZM  30 37
M  ZZI  30 124
M  ZZM  31 37
M  ZZI  31 125
M  ZZM  32 37
M  ZZI  32 125
M  ZZM  33 37
M  ZZI  33 125
M  ZZM  34 37
M  ZZI  34 125
M  ZZM  35 37
M  ZZI  35 125
M  ZZM  36 1
M  ZZI  36 112
M  ZZM  37 1
M  ZZI  37 112
M  ZZM  38 5
M  ZZI  38 1
M  ZZM  39 5
M  ZZI  39 1
M  ZZM  40 5
M  ZZI  40 1
M  ZZM  41 5
M  ZZI  41 1
M  ZZM  42 5
M  ZZI  42 1
M  ZZM  43 5
M  ZZI  43 1
M  ZZM  44 5
M  ZZI  44 1
M  ZZM  45 5
M  ZZI  45 1
M  ZZM  46 5
M  ZZI  46 1
M  ZZM  47 28
M  ZZI  47 11
M  ZZM  48 5
M  ZZI  48 1
M  ZZM  49 5
M  ZZI  49 1
M  ZZM  50 5
M  ZZI  50 1
M  ZZM  51 5
M  ZZI  51 1
M  ZZM  52 5
M  ZZI  52 1
M  ZZM  53 5
M  ZZI  53 1
M  ZZM  54 5
M  ZZI  54 1
M  ZZM  55 5
M  ZZI  55 1
M  ZZM  56 5
M  ZZI  56 1
M  ZZM  57 5
M  ZZI  57 1
M  ZZM  58 5
M  ZZI  58 1
M  ZZM  59 5
M  ZZI  59 1
M  ZZM  60 5
M  ZZI  60 1
M  ZZM  61 5
M  ZZI  61 1
M  ZZM  62 5
M  ZZI  62 1
M  ZZM  63 5
M  ZZI  63 1
M  ZZM  64 21
M  ZZI  64 20
M  ZZM  65 5
M  ZZI  65 1
M  ZZM  66 5
M  ZZI  66 1
M  ZZM  67 5
M  ZZI  67 1
M  ZZM  68 5
M  ZZI  68 1
M  ZZM  69 5
M  ZZI  69 1
M  ZZM  70 5
M  ZZI  70 1
M  ZZM  71 5
M  ZZI  71 1
M  ZZM  72 5
M  ZZI  72 1
M  ZZM  73 5
M  ZZI  73 1
M  ZZM  74 5
M  ZZI  74 1
M  ZZM  75 5
M  ZZI  75 1
M  END
> <IX>
1

> <NAME>
VHL_5T8E_7.pdb

> <Score>
-3.24767

> <Natom>
75

> <Nflex>
11

> <Hbond>
-3.097182

> <Hphob>
-6.65503

> <VwInt>
-25.923794

> <Dsolv>
17.176661

> <SolEl>
17.109091

> <Eintl>
6.993946

> <RecConf>
ND

> <projPath>
VHL_maps/

> <NAME_>
VHL_5T8E_7.pdb

$$$$
