VHL_4IM0_15.pdb
  MOLSOFT 04032206373D

 65 67  0  0  1  0  0  0  0  0999 V2000
   18.4162   -7.0487   -5.3764 C   0  0  0  0  0  0  0  0  0  0  0  0
   17.2368   -6.1168   -5.3410 C   0  0  0  0  0  0  0  0  0  0  0  0
   16.1419   -6.4771   -5.7433 O   0  0  0  0  0  0  0  0  0  0  0  0
   17.5234   -4.8772   -4.8018 N   0  0  0  0  0  0  0  0  0  0  0  0
   16.5465   -3.7895   -4.6995 C   0  0  1  0  0  0  0  0  0  0  0  0
   15.8936   -3.6738   -3.2818 C   0  0  0  0  0  0  0  0  0  0  0  0
   14.6385   -2.7888   -3.3394 C   0  0  0  0  0  0  0  0  0  0  0  0
   16.8575   -3.0750   -2.2450 C   0  0  0  0  0  0  0  0  0  0  0  0
   15.4499   -5.0496   -2.7635 C   0  0  0  0  0  0  0  0  0  0  0  0
   17.2484   -2.4916   -5.1394 C   0  0  0  0  0  0  0  0  0  0  0  0
   18.3949   -2.2438   -4.7948 O   0  0  0  0  0  0  0  0  0  0  0  0
   16.5128   -1.5565   -5.8679 N   0  0  0  0  0  0  0  0  0  0  0  0
   17.0480   -0.2243   -6.1158 C   0  0  2  0  0  0  0  0  0  0  0  0
   17.1055    0.6395   -4.8595 C   0  0  0  0  0  0  0  0  0  0  0  0
   16.3458    0.4996   -3.9105 O   0  0  0  0  0  0  0  0  0  0  0  0
   18.0250    1.6649   -4.9681 N   0  0  0  0  0  0  0  0  0  0  0  0
   17.9988    2.8058   -4.0798 C   0  0  0  0  0  0  0  0  0  0  0  0
   17.0806    3.8499   -4.6578 C   0  0  0  0  0  0  0  0  0  0  0  0
   15.7284    3.8703   -4.3282 C   0  0  0  0  0  0  0  0  0  0  0  0
   14.8549    4.7263   -4.9754 C   0  0  0  0  0  0  0  0  0  0  0  0
   15.3097    5.5828   -5.9722 C   0  0  0  0  0  0  0  0  0  0  0  0
   14.3775    6.4227   -6.7121 C   0  0  0  0  0  0  0  0  0  0  0  0
   13.3839    7.2954   -6.2821 C   0  0  0  0  0  0  0  0  0  0  0  0
   13.0058    7.6180   -4.8860 C   0  0  0  0  0  0  0  0  0  0  0  0
   12.6825    7.9201   -7.2931 N   0  0  0  0  0  0  0  0  0  0  0  0
   13.1179    7.4949   -8.4566 C   0  0  0  0  0  0  0  0  0  0  0  0
   14.3925    6.3704   -8.4319 S   0  0  0  0  0  0  0  0  0  0  0  0
   16.6692    5.5885   -6.2738 C   0  0  0  0  0  0  0  0  0  0  0  0
   17.5420    4.7321   -5.6279 C   0  0  0  0  0  0  0  0  0  0  0  0
   16.0856    0.4245   -7.1071 C   0  0  0  0  0  0  0  0  0  0  0  0
   15.4265   -0.7509   -7.7981 C   0  0  1  0  0  0  0  0  0  0  0  0
   16.2193   -1.1759   -8.9158 O   0  0  0  0  0  0  0  0  0  0  0  0
   15.3751   -1.8282   -6.7227 C   0  0  0  0  0  0  0  0  0  0  0  0
   19.3601   -6.5113   -5.2473 H   0  0  0  0  0  0  0  0  0  0  0  0
   18.4413   -7.5567   -6.3438 H   0  0  0  0  0  0  0  0  0  0  0  0
   18.3058   -7.7889   -4.5808 H   0  0  0  0  0  0  0  0  0  0  0  0
   18.4666   -4.6973   -4.4787 H   0  0  0  0  0  0  0  0  0  0  0  0
   15.7798   -4.0223   -5.4256 H   0  0  0  0  0  0  0  0  0  0  0  0
   14.8859   -1.7614   -3.6254 H   0  0  0  0  0  0  0  0  0  0  0  0
   14.1381   -2.7412   -2.3674 H   0  0  0  0  0  0  0  0  0  0  0  0
   13.9116   -3.1511   -4.0696 H   0  0  0  0  0  0  0  0  0  0  0  0
   16.4230   -3.0915   -1.2401 H   0  0  0  0  0  0  0  0  0  0  0  0
   17.1033   -2.0318   -2.4643 H   0  0  0  0  0  0  0  0  0  0  0  0
   17.7954   -3.6315   -2.2001 H   0  0  0  0  0  0  0  0  0  0  0  0
   14.9495   -4.9726   -1.7930 H   0  0  0  0  0  0  0  0  0  0  0  0
   16.2929   -5.7325   -2.6302 H   0  0  0  0  0  0  0  0  0  0  0  0
   14.7436   -5.5179   -3.4498 H   0  0  0  0  0  0  0  0  0  0  0  0
   18.0518   -0.3243   -6.5334 H   0  0  0  0  0  0  0  0  0  0  0  0
   18.6510    1.7004   -5.7653 H   0  0  0  0  0  0  0  0  0  0  0  0
   17.6666    2.5001   -3.0817 H   0  0  0  0  0  0  0  0  0  0  0  0
   19.0209    3.1884   -3.9889 H   0  0  0  0  0  0  0  0  0  0  0  0
   15.3354    3.1803   -3.5864 H   0  0  0  0  0  0  0  0  0  0  0  0
   13.7993    4.6872   -4.7216 H   0  0  0  0  0  0  0  0  0  0  0  0
   12.2332    6.9303   -4.5294 H   0  0  0  0  0  0  0  0  0  0  0  0
   12.6070    8.6333   -4.8186 H   0  0  0  0  0  0  0  0  0  0  0  0
   13.8628    7.5589   -4.2094 H   0  0  0  0  0  0  0  0  0  0  0  0
   12.6997    7.8286   -9.3904 H   0  0  0  0  0  0  0  0  0  0  0  0
   17.0646    6.2533   -7.0366 H   0  0  0  0  0  0  0  0  0  0  0  0
   18.5898    4.7341   -5.9141 H   0  0  0  0  0  0  0  0  0  0  0  0
   15.3266    1.0188   -6.5850 H   0  0  0  0  0  0  0  0  0  0  0  0
   16.6111    1.0878   -7.8025 H   0  0  0  0  0  0  0  0  0  0  0  0
   14.4314   -0.5000   -8.1680 H   0  0  0  0  0  0  0  0  0  0  0  0
   17.1563   -1.0926   -8.6586 H   0  0  0  0  0  0  0  0  0  0  0  0
   15.4446   -2.8329   -7.1460 H   0  0  0  0  0  0  0  0  0  0  0  0
   14.4719   -1.7362   -6.1118 H   0  0  0  0  0  0  0  0  0  0  0  0
  1 34  1  0  0  0  0
  1 35  1  0  0  0  0
  1 36  1  0  0  0  0
  1  2  1  0  0  0  0
  2  3  2  0  0  0  0
  2  4  1  0  0  0  0
  4 37  1  0  0  0  0
  5  4  1  0  0  0  0
  5 38  1  0  0  0  0
  5  6  1  0  0  0  0
  5 10  1  0  0  0  0
  6  7  1  0  0  0  0
  6  8  1  0  0  0  0
  6  9  1  0  0  0  0
  7 39  1  0  0  0  0
  7 40  1  0  0  0  0
  7 41  1  0  0  0  0
  8 42  1  0  0  0  0
  8 43  1  0  0  0  0
  8 44  1  0  0  0  0
  9 45  1  0  0  0  0
  9 46  1  0  0  0  0
  9 47  1  0  0  0  0
 10 11  2  0  0  0  0
 10 12  1  0  0  0  0
 12 33  1  0  0  0  0
 13 12  1  0  0  0  0
 13 30  1  0  0  0  0
 13 48  1  0  0  0  0
 13 14  1  0  0  0  0
 14 15  2  0  0  0  0
 14 16  1  0  0  0  0
 16 49  1  0  0  0  0
 16 17  1  0  0  0  0
 17 50  1  0  0  0  0
 17 51  1  0  0  0  0
 17 18  1  0  0  0  0
 18 19  1  0  0  0  0
 18 29  2  0  0  0  0
 19 52  1  0  0  0  0
 19 20  2  0  0  0  0
 20 53  1  0  0  0  0
 20 21  1  0  0  0  0
 21 28  2  0  0  0  0
 21 22  1  0  0  0  0
 22 23  2  0  0  0  0
 22 27  1  0  0  0  0
 23 24  1  0  0  0  0
 23 25  1  0  0  0  0
 24 54  1  0  0  0  0
 24 55  1  0  0  0  0
 24 56  1  0  0  0  0
 25 26  2  0  0  0  0
 26 57  1  0  0  0  0
 26 27  1  0  0  0  0
 28 58  1  0  0  0  0
 28 29  1  0  0  0  0
 29 59  1  0  0  0  0
 31 30  1  0  0  0  0
 30 60  1  0  0  0  0
 30 61  1  0  0  0  0
 31 33  1  0  0  0  0
 31 62  1  0  0  0  0
 31 32  1  0  0  0  0
 32 63  1  0  0  0  0
 33 64  1  0  0  0  0
 33 65  1  0  0  0  0
M  ZZC   1 c1
M  ZZC   2 c2
M  ZZC   3 o1
M  ZZC   4 n1
M  ZZC   5 c3
M  ZZC   6 c4
M  ZZC   7 c5
M  ZZC   8 c6
M  ZZC   9 c7
M  ZZC  10 c8
M  ZZC  11 o2
M  ZZC  12 n2
M  ZZC  13 c9
M  ZZC  14 c10
M  ZZC  15 o3
M  ZZC  16 n3
M  ZZC  17 c11
M  ZZC  18 c12
M  ZZC  19 c13
M  ZZC  20 c14
M  ZZC  21 c15
M  ZZC  22 c16
M  ZZC  23 c17
M  ZZC  24 c18
M  ZZC  25 n4
M  ZZC  26 c19
M  ZZC  27 s1
M  ZZC  28 c20
M  ZZC  29 c21
M  ZZC  30 c22
M  ZZC  31 c23
M  ZZC  32 o4
M  ZZC  33 c24
M  ZZC  34 h11
M  ZZC  35 h12
M  ZZC  36 h13
M  ZZC  37 h01
M  ZZC  38 h31
M  ZZC  39 h51
M  ZZC  40 h52
M  ZZC  41 h53
M  ZZC  42 h61
M  ZZC  43 h62
M  ZZC  44 h63
M  ZZC  45 h71
M  ZZC  46 h72
M  ZZC  47 h73
M  ZZC  48 h91
M  ZZC  49 h02
M  ZZC  50 h111
M  ZZC  51 h112
M  ZZC  52 h131
M  ZZC  53 h141
M  ZZC  54 h181
M  ZZC  55 h182
M  ZZC  56 h183
M  ZZC  57 h191
M  ZZC  58 h201
M  ZZC  59 h211
M  ZZC  60 h221
M  ZZC  61 h222
M  ZZC  62 h231
M  ZZC  63 h41
M  ZZC  64 h241
M  ZZC  65 h242
M  ZZM   1 1
M  ZZI   1 111
M  ZZM   2 3
M  ZZI   2 121
M  ZZM   3 7
M  ZZI   3 81
M  ZZM   4 10
M  ZZI   4 211
M  ZZM   5 1
M  ZZI   5 113
M  ZZM   6 1
M  ZZI   6 110
M  ZZM   7 1
M  ZZI   7 111
M  ZZM   8 1
M  ZZI   8 111
M  ZZM   9 1
M  ZZI   9 111
M  ZZM  10 3
M  ZZI  10 121
M  ZZM  11 7
M  ZZI  11 81
M  ZZM  12 10
M  ZZI  12 192
M  ZZM  13 1
M  ZZI  13 113
M  ZZM  14 3
M  ZZI  14 121
M  ZZM  15 7
M  ZZI  15 81
M  ZZM  16 10
M  ZZI  16 211
M  ZZM  17 1
M  ZZI  17 112
M  ZZM  18 37
M  ZZI  18 124
M  ZZM  19 37
M  ZZI  19 125
M  ZZM  20 37
M  ZZI  20 125
M  ZZM  21 37
M  ZZI  21 124
M  ZZM  22 63
M  ZZI  22 104
M  ZZM  23 64
M  ZZI  23 105
M  ZZM  24 1
M  ZZI  24 111
M  ZZM  25 66
M  ZZI  25 222
M  ZZM  26 63
M  ZZI  26 104
M  ZZM  27 44
M  ZZI  27 248
M  ZZM  28 37
M  ZZI  28 125
M  ZZM  29 37
M  ZZI  29 125
M  ZZM  30 1
M  ZZI  30 112
M  ZZM  31 1
M  ZZI  31 113
M  ZZM  32 6
M  ZZI  32 60
M  ZZM  33 1
M  ZZI  33 112
M  ZZM  34 5
M  ZZI  34 1
M  ZZM  35 5
M  ZZI  35 1
M  ZZM  36 5
M  ZZI  36 1
M  ZZM  37 28
M  ZZI  37 11
M  ZZM  38 5
M  ZZI  38 1
M  ZZM  39 5
M  ZZI  39 1
M  ZZM  40 5
M  ZZI  40 1
M  ZZM  41 5
M  ZZI  41 1
M  ZZM  42 5
M  ZZI  42 1
M  ZZM  43 5
M  ZZI  43 1
M  ZZM  44 5
M  ZZI  44 1
M  ZZM  45 5
M  ZZI  45 1
M  ZZM  46 5
M  ZZI  46 1
M  ZZM  47 5
M  ZZI  47 1
M  ZZM  48 5
M  ZZI  48 1
M  ZZM  49 28
M  ZZI  49 11
M  ZZM  50 5
M  ZZI  50 1
M  ZZM  51 5
M  ZZI  51 1
M  ZZM  52 5
M  ZZI  52 1
M  ZZM  53 5
M  ZZI  53 1
M  ZZM  54 5
M  ZZI  54 1
M  ZZM  55 5
M  ZZI  55 1
M  ZZM  56 5
M  ZZI  56 1
M  ZZM  57 5
M  ZZI  57 1
M  ZZM  58 5
M  ZZI  58 1
M  ZZM  59 5
M  ZZI  59 1
M  ZZM  60 5
M  ZZI  60 1
M  ZZM  61 5
M  ZZI  61 1
M  ZZM  62 5
M  ZZI  62 1
M  ZZM  63 21
M  ZZI  63 20
M  ZZM  64 5
M  ZZI  64 1
M  ZZM  65 5
M  ZZI  65 1
M  END
> <IX>
1

> <NAME>
VHL_4IM0_15.pdb

> <Score>
-25.087892

> <Natom>
65

> <Nflex>
8

> <Hbond>
-8.017513

> <Hphob>
-6.424885

> <VwInt>
-29.573576

> <Dsolv>
20.445666

> <SolEl>
8.971012

> <Eintl>
5.032581

> <RecConf>
ND

> <projPath>
VHL_maps/

> <NAME_>
VHL_4IM0_15.pdb

$$$$
