VHL_1ERR_15.pdb
  MOLSOFT 04032206373D

 68 70  0  0  1  0  0  0  0  0999 V2000
   16.7025   -6.2471   -5.9660 O   0  0  0  0  0  0  0  0  0  0  0  0
   17.7325   -5.6586   -5.6743 C   0  0  0  0  0  0  0  0  0  0  0  0
   17.8047   -4.3727   -5.1676 N   0  0  0  0  0  0  0  0  0  0  0  0
   16.6536   -3.4851   -4.9826 C   0  0  1  0  0  0  0  0  0  0  0  0
   15.9892   -3.6063   -3.5694 C   0  0  0  0  0  0  0  0  0  0  0  0
   16.8408   -2.9456   -2.4757 C   0  0  0  0  0  0  0  0  0  0  0  0
   14.6032   -2.9458   -3.5726 C   0  0  0  0  0  0  0  0  0  0  0  0
   15.7765   -5.0714   -3.1605 C   0  0  0  0  0  0  0  0  0  0  0  0
   17.1855   -2.0659   -5.2800 C   0  0  0  0  0  0  0  0  0  0  0  0
   18.2955   -1.7281   -4.8943 O   0  0  0  0  0  0  0  0  0  0  0  0
   16.3702   -1.1510   -5.9499 N   0  0  0  0  0  0  0  0  0  0  0  0
   16.8377    0.2216   -6.1745 C   0  0  2  0  0  0  0  0  0  0  0  0
   16.7516    1.1221   -4.9379 C   0  0  0  0  0  0  0  0  0  0  0  0
   17.4333    2.1325   -4.8420 O   0  0  0  0  0  0  0  0  0  0  0  0
   15.7395    0.7981   -4.0530 N   0  0  0  0  0  0  0  0  0  0  0  0
   15.4071    1.6028   -2.8877 C   0  0  1  0  0  0  0  0  0  0  0  0
   14.2304    2.5264   -3.2058 C   0  0  0  0  0  0  0  0  0  0  0  0
   15.1691    0.7229   -1.6740 C   0  0  0  0  0  0  0  0  0  0  0  0
   16.1962    0.5270   -0.7558 C   0  0  0  0  0  0  0  0  0  0  0  0
   16.0195   -0.2679    0.3637 C   0  0  0  0  0  0  0  0  0  0  0  0
   14.8089   -0.9064    0.6087 C   0  0  0  0  0  0  0  0  0  0  0  0
   14.6325   -1.7310    1.8020 C   0  0  0  0  0  0  0  0  0  0  0  0
   15.4106   -2.7560    2.3316 C   0  0  0  0  0  0  0  0  0  0  0  0
   16.6623   -3.3192    1.7744 C   0  0  0  0  0  0  0  0  0  0  0  0
   14.9402   -3.3021    3.5094 N   0  0  0  0  0  0  0  0  0  0  0  0
   13.8331   -2.6964    3.8694 C   0  0  0  0  0  0  0  0  0  0  0  0
   13.2842   -1.4565    2.8364 S   0  0  0  0  0  0  0  0  0  0  0  0
   13.7819   -0.7269   -0.3147 C   0  0  0  0  0  0  0  0  0  0  0  0
   13.9613    0.0674   -1.4362 C   0  0  0  0  0  0  0  0  0  0  0  0
   15.9270    0.7787   -7.2640 C   0  0  0  0  0  0  0  0  0  0  0  0
   15.3524   -0.4512   -7.9374 C   0  0  1  0  0  0  0  0  0  0  0  0
   16.2273   -0.9291   -8.9703 O   0  0  0  0  0  0  0  0  0  0  0  0
   15.2527   -1.4708   -6.8156 C   0  0  0  0  0  0  0  0  0  0  0  0
   19.0746   -6.3162   -5.8539 C   0  0  0  0  0  0  0  0  0  0  0  0
   18.7183   -3.9835   -4.9608 H   0  0  0  0  0  0  0  0  0  0  0  0
   15.9432   -3.7700   -5.7508 H   0  0  0  0  0  0  0  0  0  0  0  0
   17.8454   -3.3734   -2.4335 H   0  0  0  0  0  0  0  0  0  0  0  0
   16.3883   -3.0824   -1.4904 H   0  0  0  0  0  0  0  0  0  0  0  0
   16.9448   -1.8682   -2.6272 H   0  0  0  0  0  0  0  0  0  0  0  0
   14.0963   -3.0624   -2.6118 H   0  0  0  0  0  0  0  0  0  0  0  0
   13.9504   -3.3671   -4.3332 H   0  0  0  0  0  0  0  0  0  0  0  0
   14.6706   -1.8722   -3.7735 H   0  0  0  0  0  0  0  0  0  0  0  0
   15.1769   -5.6024   -3.9004 H   0  0  0  0  0  0  0  0  0  0  0  0
   15.2469   -5.1514   -2.2054 H   0  0  0  0  0  0  0  0  0  0  0  0
   16.7207   -5.6095   -3.0424 H   0  0  0  0  0  0  0  0  0  0  0  0
   17.8824    0.1869   -6.5023 H   0  0  0  0  0  0  0  0  0  0  0  0
   15.1852   -0.0257   -4.2439 H   0  0  0  0  0  0  0  0  0  0  0  0
   16.2631    2.2523   -2.6736 H   0  0  0  0  0  0  0  0  0  0  0  0
   14.4889    3.2196   -4.0126 H   0  0  0  0  0  0  0  0  0  0  0  0
   13.9393    3.1196   -2.3326 H   0  0  0  0  0  0  0  0  0  0  0  0
   13.3507    1.9686   -3.5409 H   0  0  0  0  0  0  0  0  0  0  0  0
   17.1605    1.0042   -0.9067 H   0  0  0  0  0  0  0  0  0  0  0  0
   16.8463   -0.3710    1.0595 H   0  0  0  0  0  0  0  0  0  0  0  0
   16.9714   -4.2089    2.3275 H   0  0  0  0  0  0  0  0  0  0  0  0
   17.4789   -2.5933    1.8335 H   0  0  0  0  0  0  0  0  0  0  0  0
   16.5369   -3.5879    0.7222 H   0  0  0  0  0  0  0  0  0  0  0  0
   13.2952   -2.9624    4.7680 H   0  0  0  0  0  0  0  0  0  0  0  0
   12.8223   -1.2164   -0.1758 H   0  0  0  0  0  0  0  0  0  0  0  0
   13.1378    0.1641   -2.1347 H   0  0  0  0  0  0  0  0  0  0  0  0
   15.1166    1.3772   -6.8322 H   0  0  0  0  0  0  0  0  0  0  0  0
   16.4813    1.4195   -7.9571 H   0  0  0  0  0  0  0  0  0  0  0  0
   14.3816   -0.2388   -8.3844 H   0  0  0  0  0  0  0  0  0  0  0  0
   17.1432   -0.8686   -8.6378 H   0  0  0  0  0  0  0  0  0  0  0  0
   15.3115   -2.4949   -7.1904 H   0  0  0  0  0  0  0  0  0  0  0  0
   14.3346   -1.3336   -6.2350 H   0  0  0  0  0  0  0  0  0  0  0  0
   19.1629   -6.6727   -6.8833 H   0  0  0  0  0  0  0  0  0  0  0  0
   19.1557   -7.1652   -5.1700 H   0  0  0  0  0  0  0  0  0  0  0  0
   19.8944   -5.6198   -5.6637 H   0  0  0  0  0  0  0  0  0  0  0  0
  1  2  2  0  0  0  0
  2  3  1  0  0  0  0
  2 34  1  0  0  0  0
  4  3  1  0  0  0  0
  3 35  1  0  0  0  0
  4  5  1  0  0  0  0
  4 36  1  0  0  0  0
  4  9  1  0  0  0  0
  5  6  1  0  0  0  0
  5  7  1  0  0  0  0
  5  8  1  0  0  0  0
  6 37  1  0  0  0  0
  6 38  1  0  0  0  0
  6 39  1  0  0  0  0
  7 40  1  0  0  0  0
  7 41  1  0  0  0  0
  7 42  1  0  0  0  0
  8 43  1  0  0  0  0
  8 44  1  0  0  0  0
  8 45  1  0  0  0  0
  9 10  2  0  0  0  0
  9 11  1  0  0  0  0
 11 33  1  0  0  0  0
 12 11  1  0  0  0  0
 12 30  1  0  0  0  0
 12 46  1  0  0  0  0
 12 13  1  0  0  0  0
 13 14  2  0  0  0  0
 13 15  1  0  0  0  0
 15 47  1  0  0  0  0
 16 15  1  0  0  0  0
 16 48  1  0  0  0  0
 16 17  1  0  0  0  0
 16 18  1  0  0  0  0
 17 49  1  0  0  0  0
 17 50  1  0  0  0  0
 17 51  1  0  0  0  0
 18 19  1  0  0  0  0
 18 29  2  0  0  0  0
 19 52  1  0  0  0  0
 19 20  2  0  0  0  0
 20 53  1  0  0  0  0
 20 21  1  0  0  0  0
 21 28  2  0  0  0  0
 21 22  1  0  0  0  0
 22 23  2  0  0  0  0
 22 27  1  0  0  0  0
 23 24  1  0  0  0  0
 23 25  1  0  0  0  0
 24 54  1  0  0  0  0
 24 55  1  0  0  0  0
 24 56  1  0  0  0  0
 25 26  2  0  0  0  0
 26 57  1  0  0  0  0
 26 27  1  0  0  0  0
 28 58  1  0  0  0  0
 28 29  1  0  0  0  0
 29 59  1  0  0  0  0
 31 30  1  0  0  0  0
 30 60  1  0  0  0  0
 30 61  1  0  0  0  0
 31 33  1  0  0  0  0
 31 62  1  0  0  0  0
 31 32  1  0  0  0  0
 32 63  1  0  0  0  0
 33 64  1  0  0  0  0
 33 65  1  0  0  0  0
 34 66  1  0  0  0  0
 34 67  1  0  0  0  0
 34 68  1  0  0  0  0
M  ZZC   1 o1
M  ZZC   2 c1
M  ZZC   3 n1
M  ZZC   4 c2
M  ZZC   5 c3
M  ZZC   6 c4
M  ZZC   7 c5
M  ZZC   8 c6
M  ZZC   9 c7
M  ZZC  10 o2
M  ZZC  11 n2
M  ZZC  12 c8
M  ZZC  13 c9
M  ZZC  14 o3
M  ZZC  15 n3
M  ZZC  16 c10
M  ZZC  17 c11
M  ZZC  18 c12
M  ZZC  19 c13
M  ZZC  20 c14
M  ZZC  21 c15
M  ZZC  22 c16
M  ZZC  23 c17
M  ZZC  24 c18
M  ZZC  25 n4
M  ZZC  26 c19
M  ZZC  27 s1
M  ZZC  28 c20
M  ZZC  29 c21
M  ZZC  30 c22
M  ZZC  31 c23
M  ZZC  32 o4
M  ZZC  33 c24
M  ZZC  34 c25
M  ZZC  35 h11
M  ZZC  36 h21
M  ZZC  37 h41
M  ZZC  38 h42
M  ZZC  39 h43
M  ZZC  40 h51
M  ZZC  41 h52
M  ZZC  42 h53
M  ZZC  43 h61
M  ZZC  44 h62
M  ZZC  45 h63
M  ZZC  46 h81
M  ZZC  47 h31
M  ZZC  48 h101
M  ZZC  49 h111
M  ZZC  50 h112
M  ZZC  51 h113
M  ZZC  52 h131
M  ZZC  53 h141
M  ZZC  54 h181
M  ZZC  55 h182
M  ZZC  56 h183
M  ZZC  57 h191
M  ZZC  58 h201
M  ZZC  59 h211
M  ZZC  60 h221
M  ZZC  61 h222
M  ZZC  62 h231
M  ZZC  63 h01
M  ZZC  64 h241
M  ZZC  65 h242
M  ZZC  66 h251
M  ZZC  67 h252
M  ZZC  68 h253
M  ZZM   1 7
M  ZZI   1 81
M  ZZM   2 3
M  ZZI   2 121
M  ZZM   3 10
M  ZZI   3 211
M  ZZM   4 1
M  ZZI   4 113
M  ZZM   5 1
M  ZZI   5 110
M  ZZM   6 1
M  ZZI   6 111
M  ZZM   7 1
M  ZZI   7 111
M  ZZM   8 1
M  ZZI   8 111
M  ZZM   9 3
M  ZZI   9 121
M  ZZM  10 7
M  ZZI  10 81
M  ZZM  11 10
M  ZZI  11 192
M  ZZM  12 1
M  ZZI  12 113
M  ZZM  13 3
M  ZZI  13 121
M  ZZM  14 7
M  ZZI  14 81
M  ZZM  15 10
M  ZZI  15 211
M  ZZM  16 1
M  ZZI  16 113
M  ZZM  17 1
M  ZZI  17 111
M  ZZM  18 37
M  ZZI  18 124
M  ZZM  19 37
M  ZZI  19 125
M  ZZM  20 37
M  ZZI  20 125
M  ZZM  21 37
M  ZZI  21 124
M  ZZM  22 63
M  ZZI  22 104
M  ZZM  23 64
M  ZZI  23 105
M  ZZM  24 1
M  ZZI  24 111
M  ZZM  25 66
M  ZZI  25 222
M  ZZM  26 63
M  ZZI  26 104
M  ZZM  27 44
M  ZZI  27 248
M  ZZM  28 37
M  ZZI  28 125
M  ZZM  29 37
M  ZZI  29 125
M  ZZM  30 1
M  ZZI  30 112
M  ZZM  31 1
M  ZZI  31 113
M  ZZM  32 6
M  ZZI  32 60
M  ZZM  33 1
M  ZZI  33 112
M  ZZM  34 1
M  ZZI  34 111
M  ZZM  35 28
M  ZZI  35 11
M  ZZM  36 5
M  ZZI  36 1
M  ZZM  37 5
M  ZZI  37 1
M  ZZM  38 5
M  ZZI  38 1
M  ZZM  39 5
M  ZZI  39 1
M  ZZM  40 5
M  ZZI  40 1
M  ZZM  41 5
M  ZZI  41 1
M  ZZM  42 5
M  ZZI  42 1
M  ZZM  43 5
M  ZZI  43 1
M  ZZM  44 5
M  ZZI  44 1
M  ZZM  45 5
M  ZZI  45 1
M  ZZM  46 5
M  ZZI  46 1
M  ZZM  47 28
M  ZZI  47 11
M  ZZM  48 5
M  ZZI  48 1
M  ZZM  49 5
M  ZZI  49 1
M  ZZM  50 5
M  ZZI  50 1
M  ZZM  51 5
M  ZZI  51 1
M  ZZM  52 5
M  ZZI  52 1
M  ZZM  53 5
M  ZZI  53 1
M  ZZM  54 5
M  ZZI  54 1
M  ZZM  55 5
M  ZZI  55 1
M  ZZM  56 5
M  ZZI  56 1
M  ZZM  57 5
M  ZZI  57 1
M  ZZM  58 5
M  ZZI  58 1
M  ZZM  59 5
M  ZZI  59 1
M  ZZM  60 5
M  ZZI  60 1
M  ZZM  61 5
M  ZZI  61 1
M  ZZM  62 5
M  ZZI  62 1
M  ZZM  63 21
M  ZZI  63 20
M  ZZM  64 5
M  ZZI  64 1
M  ZZM  65 5
M  ZZI  65 1
M  ZZM  66 5
M  ZZI  66 1
M  ZZM  67 5
M  ZZI  67 1
M  ZZM  68 5
M  ZZI  68 1
M  END
> <IX>
1

> <NAME>
VHL_1ERR_15.pdb

> <Score>
-25.707677

> <Natom>
68

> <Nflex>
8

> <Hbond>
-7.886249

> <Hphob>
-6.82861

> <VwInt>
-27.867475

> <Dsolv>
16.572866

> <SolEl>
9.97377

> <Eintl>
4.791399

> <RecConf>
ND

> <projPath>
VHL_maps/

> <NAME_>
VHL_1ERR_15.pdb

$$$$
