VHL_5G0J_4.pdb
  MOLSOFT 04032206413D

 65 67  0  0  1  0  0  0  0  0999 V2000
   18.0598   -7.0334   -5.1169 C   0  0  0  0  0  0  0  0  0  0  0  0
   16.9154   -6.0604   -5.0671 C   0  0  0  0  0  0  0  0  0  0  0  0
   15.8399   -6.3337   -5.5715 O   0  0  0  0  0  0  0  0  0  0  0  0
   17.2040   -4.8992   -4.3793 N   0  0  0  0  0  0  0  0  0  0  0  0
   16.2656   -3.7807   -4.2088 C   0  0  1  0  0  0  0  0  0  0  0  0
   15.8552   -3.5635   -2.7205 C   0  0  0  0  0  0  0  0  0  0  0  0
   14.7204   -2.5379   -2.5842 C   0  0  0  0  0  0  0  0  0  0  0  0
   17.0265   -3.0771   -1.8545 C   0  0  0  0  0  0  0  0  0  0  0  0
   15.3311   -4.8885   -2.1519 C   0  0  0  0  0  0  0  0  0  0  0  0
   16.9636   -2.5780   -4.8673 C   0  0  0  0  0  0  0  0  0  0  0  0
   18.1670   -2.3979   -4.7387 O   0  0  0  0  0  0  0  0  0  0  0  0
   16.1911   -1.6745   -5.5935 N   0  0  0  0  0  0  0  0  0  0  0  0
   16.8267   -0.5839   -6.3205 C   0  0  2  0  0  0  0  0  0  0  0  0
   17.3624    0.5068   -5.3955 C   0  0  0  0  0  0  0  0  0  0  0  0
   16.9143    0.7090   -4.2747 O   0  0  0  0  0  0  0  0  0  0  0  0
   18.3259    1.2949   -6.0017 N   0  0  0  0  0  0  0  0  0  0  0  0
   18.6904    2.5965   -5.4778 C   0  0  0  0  0  0  0  0  0  0  0  0
   17.6893    3.6067   -5.9713 C   0  0  0  0  0  0  0  0  0  0  0  0
   16.4451    3.6952   -5.3560 C   0  0  0  0  0  0  0  0  0  0  0  0
   15.4155    4.3893   -5.9520 C   0  0  0  0  0  0  0  0  0  0  0  0
   15.6203    5.0432   -7.1566 C   0  0  0  0  0  0  0  0  0  0  0  0
   14.4778    5.5979   -7.8491 C   0  0  0  0  0  0  0  0  0  0  0  0
   13.4502    4.9379   -8.5073 C   0  0  0  0  0  0  0  0  0  0  0  0
   13.3319    3.4775   -8.7375 C   0  0  0  0  0  0  0  0  0  0  0  0
   12.4375    5.7549   -8.9555 N   0  0  0  0  0  0  0  0  0  0  0  0
   12.7447    7.0061   -8.6924 C   0  0  0  0  0  0  0  0  0  0  0  0
   14.2212    7.2906   -7.8916 S   0  0  0  0  0  0  0  0  0  0  0  0
   16.8955    5.0778   -7.7075 C   0  0  0  0  0  0  0  0  0  0  0  0
   17.9208    4.3488   -7.1265 C   0  0  0  0  0  0  0  0  0  0  0  0
   15.7349   -0.0327   -7.2375 C   0  0  0  0  0  0  0  0  0  0  0  0
   14.4568   -0.3965   -6.5043 C   0  0  1  0  0  0  0  0  0  0  0  0
   13.3418   -0.4490   -7.3900 O   0  0  0  0  0  0  0  0  0  0  0  0
   14.7958   -1.7670   -5.9536 C   0  0  0  0  0  0  0  0  0  0  0  0
   19.0173   -6.5092   -5.1957 H   0  0  0  0  0  0  0  0  0  0  0  0
   17.9473   -7.6810   -5.9912 H   0  0  0  0  0  0  0  0  0  0  0  0
   18.0431   -7.6442   -4.2114 H   0  0  0  0  0  0  0  0  0  0  0  0
   18.1565   -4.7656   -4.0575 H   0  0  0  0  0  0  0  0  0  0  0  0
   15.3670   -4.0227   -4.7699 H   0  0  0  0  0  0  0  0  0  0  0  0
   14.4110   -2.4036   -1.5438 H   0  0  0  0  0  0  0  0  0  0  0  0
   13.8301   -2.8517   -3.1393 H   0  0  0  0  0  0  0  0  0  0  0  0
   15.0132   -1.5631   -2.9856 H   0  0  0  0  0  0  0  0  0  0  0  0
   16.7415   -3.0076   -0.7997 H   0  0  0  0  0  0  0  0  0  0  0  0
   17.3745   -2.0849   -2.1580 H   0  0  0  0  0  0  0  0  0  0  0  0
   17.8769   -3.7545   -1.9103 H   0  0  0  0  0  0  0  0  0  0  0  0
   14.9978   -4.7700   -1.1178 H   0  0  0  0  0  0  0  0  0  0  0  0
   16.0979   -5.6656   -2.1602 H   0  0  0  0  0  0  0  0  0  0  0  0
   14.4805   -5.2644   -2.7292 H   0  0  0  0  0  0  0  0  0  0  0  0
   17.6549   -0.9818   -6.9040 H   0  0  0  0  0  0  0  0  0  0  0  0
   18.6924    1.0229   -6.9093 H   0  0  0  0  0  0  0  0  0  0  0  0
   18.7117    2.5686   -4.3827 H   0  0  0  0  0  0  0  0  0  0  0  0
   19.7000    2.8327   -5.8298 H   0  0  0  0  0  0  0  0  0  0  0  0
   16.2418    3.1504   -4.4389 H   0  0  0  0  0  0  0  0  0  0  0  0
   14.4311    4.3755   -5.4915 H   0  0  0  0  0  0  0  0  0  0  0  0
   12.4439    3.2506   -9.3342 H   0  0  0  0  0  0  0  0  0  0  0  0
   13.2383    2.9337   -7.7936 H   0  0  0  0  0  0  0  0  0  0  0  0
   14.2084    3.0891   -9.2630 H   0  0  0  0  0  0  0  0  0  0  0  0
   12.1035    7.8282   -8.9555 H   0  0  0  0  0  0  0  0  0  0  0  0
   17.0829    5.6266   -8.6262 H   0  0  0  0  0  0  0  0  0  0  0  0
   18.8900    4.3180   -7.6157 H   0  0  0  0  0  0  0  0  0  0  0  0
   15.8058    1.0429   -7.4302 H   0  0  0  0  0  0  0  0  0  0  0  0
   15.7638   -0.5300   -8.2146 H   0  0  0  0  0  0  0  0  0  0  0  0
   14.2548    0.3243   -5.7027 H   0  0  0  0  0  0  0  0  0  0  0  0
   12.5333   -0.3516   -6.8565 H   0  0  0  0  0  0  0  0  0  0  0  0
   14.7202   -2.5249   -6.7374 H   0  0  0  0  0  0  0  0  0  0  0  0
   14.1521   -2.0675   -5.1281 H   0  0  0  0  0  0  0  0  0  0  0  0
  1 34  1  0  0  0  0
  1 35  1  0  0  0  0
  1 36  1  0  0  0  0
  1  2  1  0  0  0  0
  2  3  2  0  0  0  0
  2  4  1  0  0  0  0
  4 37  1  0  0  0  0
  5  4  1  0  0  0  0
  5 38  1  0  0  0  0
  5  6  1  0  0  0  0
  5 10  1  0  0  0  0
  6  7  1  0  0  0  0
  6  8  1  0  0  0  0
  6  9  1  0  0  0  0
  7 39  1  0  0  0  0
  7 40  1  0  0  0  0
  7 41  1  0  0  0  0
  8 42  1  0  0  0  0
  8 43  1  0  0  0  0
  8 44  1  0  0  0  0
  9 45  1  0  0  0  0
  9 46  1  0  0  0  0
  9 47  1  0  0  0  0
 10 11  2  0  0  0  0
 10 12  1  0  0  0  0
 12 33  1  0  0  0  0
 13 12  1  0  0  0  0
 13 30  1  0  0  0  0
 13 48  1  0  0  0  0
 13 14  1  0  0  0  0
 14 15  2  0  0  0  0
 14 16  1  0  0  0  0
 16 49  1  0  0  0  0
 16 17  1  0  0  0  0
 17 50  1  0  0  0  0
 17 51  1  0  0  0  0
 17 18  1  0  0  0  0
 18 19  1  0  0  0  0
 18 29  2  0  0  0  0
 19 52  1  0  0  0  0
 19 20  2  0  0  0  0
 20 53  1  0  0  0  0
 20 21  1  0  0  0  0
 21 28  2  0  0  0  0
 21 22  1  0  0  0  0
 22 23  2  0  0  0  0
 22 27  1  0  0  0  0
 23 24  1  0  0  0  0
 23 25  1  0  0  0  0
 24 54  1  0  0  0  0
 24 55  1  0  0  0  0
 24 56  1  0  0  0  0
 25 26  2  0  0  0  0
 26 57  1  0  0  0  0
 26 27  1  0  0  0  0
 28 58  1  0  0  0  0
 28 29  1  0  0  0  0
 29 59  1  0  0  0  0
 31 30  1  0  0  0  0
 30 60  1  0  0  0  0
 30 61  1  0  0  0  0
 31 33  1  0  0  0  0
 31 62  1  0  0  0  0
 31 32  1  0  0  0  0
 32 63  1  0  0  0  0
 33 64  1  0  0  0  0
 33 65  1  0  0  0  0
M  ZZC   1 c1
M  ZZC   2 c2
M  ZZC   3 o1
M  ZZC   4 n1
M  ZZC   5 c3
M  ZZC   6 c4
M  ZZC   7 c5
M  ZZC   8 c6
M  ZZC   9 c7
M  ZZC  10 c8
M  ZZC  11 o2
M  ZZC  12 n2
M  ZZC  13 c9
M  ZZC  14 c10
M  ZZC  15 o3
M  ZZC  16 n3
M  ZZC  17 c11
M  ZZC  18 c12
M  ZZC  19 c13
M  ZZC  20 c14
M  ZZC  21 c15
M  ZZC  22 c16
M  ZZC  23 c17
M  ZZC  24 c18
M  ZZC  25 n4
M  ZZC  26 c19
M  ZZC  27 s1
M  ZZC  28 c20
M  ZZC  29 c21
M  ZZC  30 c22
M  ZZC  31 c23
M  ZZC  32 o4
M  ZZC  33 c24
M  ZZC  34 h11
M  ZZC  35 h12
M  ZZC  36 h13
M  ZZC  37 h01
M  ZZC  38 h31
M  ZZC  39 h51
M  ZZC  40 h52
M  ZZC  41 h53
M  ZZC  42 h61
M  ZZC  43 h62
M  ZZC  44 h63
M  ZZC  45 h71
M  ZZC  46 h72
M  ZZC  47 h73
M  ZZC  48 h91
M  ZZC  49 h02
M  ZZC  50 h111
M  ZZC  51 h112
M  ZZC  52 h131
M  ZZC  53 h141
M  ZZC  54 h181
M  ZZC  55 h182
M  ZZC  56 h183
M  ZZC  57 h191
M  ZZC  58 h201
M  ZZC  59 h211
M  ZZC  60 h221
M  ZZC  61 h222
M  ZZC  62 h231
M  ZZC  63 h41
M  ZZC  64 h241
M  ZZC  65 h242
M  ZZM   1 1
M  ZZI   1 111
M  ZZM   2 3
M  ZZI   2 121
M  ZZM   3 7
M  ZZI   3 81
M  ZZM   4 10
M  ZZI   4 211
M  ZZM   5 1
M  ZZI   5 113
M  ZZM   6 1
M  ZZI   6 110
M  ZZM   7 1
M  ZZI   7 111
M  ZZM   8 1
M  ZZI   8 111
M  ZZM   9 1
M  ZZI   9 111
M  ZZM  10 3
M  ZZI  10 121
M  ZZM  11 7
M  ZZI  11 81
M  ZZM  12 10
M  ZZI  12 192
M  ZZM  13 1
M  ZZI  13 113
M  ZZM  14 3
M  ZZI  14 121
M  ZZM  15 7
M  ZZI  15 81
M  ZZM  16 10
M  ZZI  16 211
M  ZZM  17 1
M  ZZI  17 112
M  ZZM  18 37
M  ZZI  18 124
M  ZZM  19 37
M  ZZI  19 125
M  ZZM  20 37
M  ZZI  20 125
M  ZZM  21 37
M  ZZI  21 124
M  ZZM  22 63
M  ZZI  22 104
M  ZZM  23 64
M  ZZI  23 105
M  ZZM  24 1
M  ZZI  24 111
M  ZZM  25 66
M  ZZI  25 222
M  ZZM  26 63
M  ZZI  26 104
M  ZZM  27 44
M  ZZI  27 248
M  ZZM  28 37
M  ZZI  28 125
M  ZZM  29 37
M  ZZI  29 125
M  ZZM  30 1
M  ZZI  30 112
M  ZZM  31 1
M  ZZI  31 113
M  ZZM  32 6
M  ZZI  32 60
M  ZZM  33 1
M  ZZI  33 112
M  ZZM  34 5
M  ZZI  34 1
M  ZZM  35 5
M  ZZI  35 1
M  ZZM  36 5
M  ZZI  36 1
M  ZZM  37 28
M  ZZI  37 11
M  ZZM  38 5
M  ZZI  38 1
M  ZZM  39 5
M  ZZI  39 1
M  ZZM  40 5
M  ZZI  40 1
M  ZZM  41 5
M  ZZI  41 1
M  ZZM  42 5
M  ZZI  42 1
M  ZZM  43 5
M  ZZI  43 1
M  ZZM  44 5
M  ZZI  44 1
M  ZZM  45 5
M  ZZI  45 1
M  ZZM  46 5
M  ZZI  46 1
M  ZZM  47 5
M  ZZI  47 1
M  ZZM  48 5
M  ZZI  48 1
M  ZZM  49 28
M  ZZI  49 11
M  ZZM  50 5
M  ZZI  50 1
M  ZZM  51 5
M  ZZI  51 1
M  ZZM  52 5
M  ZZI  52 1
M  ZZM  53 5
M  ZZI  53 1
M  ZZM  54 5
M  ZZI  54 1
M  ZZM  55 5
M  ZZI  55 1
M  ZZM  56 5
M  ZZI  56 1
M  ZZM  57 5
M  ZZI  57 1
M  ZZM  58 5
M  ZZI  58 1
M  ZZM  59 5
M  ZZI  59 1
M  ZZM  60 5
M  ZZI  60 1
M  ZZM  61 5
M  ZZI  61 1
M  ZZM  62 5
M  ZZI  62 1
M  ZZM  63 21
M  ZZI  63 20
M  ZZM  64 5
M  ZZI  64 1
M  ZZM  65 5
M  ZZI  65 1
M  END
> <IX>
1

> <NAME>
VHL_5G0J_4.pdb

> <Score>
-7.43734

> <Natom>
65

> <Nflex>
8

> <Hbond>
-6.25296

> <Hphob>
-6.829979

> <VwInt>
-28.274534

> <Dsolv>
21.766127

> <SolEl>
23.594274

> <Eintl>
7.560754

> <RecConf>
ND

> <projPath>
VHL_maps/

> <NAME_>
VHL_5G0J_4.pdb

$$$$
