VHL_1ERR_22.pdb
  MOLSOFT 04032206363D

 68 70  0  0  1  0  0  0  0  0999 V2000
   15.8164   -6.2355   -5.4610 O   0  0  0  0  0  0  0  0  0  0  0  0
   16.8974   -5.9056   -5.0047 C   0  0  0  0  0  0  0  0  0  0  0  0
   17.1437   -4.7364   -4.3118 N   0  0  0  0  0  0  0  0  0  0  0  0
   16.1521   -3.6782   -4.0569 C   0  0  1  0  0  0  0  0  0  0  0  0
   15.8709   -3.5036   -2.5351 C   0  0  0  0  0  0  0  0  0  0  0  0
   17.1166   -3.0573   -1.7567 C   0  0  0  0  0  0  0  0  0  0  0  0
   14.7640   -2.4836   -2.2467 C   0  0  0  0  0  0  0  0  0  0  0  0
   15.3810   -4.8487   -1.9881 C   0  0  0  0  0  0  0  0  0  0  0  0
   16.7106   -2.4462   -4.7956 C   0  0  0  0  0  0  0  0  0  0  0  0
   17.9148   -2.2213   -4.8148 O   0  0  0  0  0  0  0  0  0  0  0  0
   15.8112   -1.6163   -5.4697 N   0  0  0  0  0  0  0  0  0  0  0  0
   16.2872   -0.6522   -6.4492 C   0  0  2  0  0  0  0  0  0  0  0  0
   16.7906    0.6303   -5.7826 C   0  0  0  0  0  0  0  0  0  0  0  0
   16.3889    1.0069   -4.6899 O   0  0  0  0  0  0  0  0  0  0  0  0
   17.7067    1.3274   -6.5542 N   0  0  0  0  0  0  0  0  0  0  0  0
   18.3328    2.5660   -6.1087 C   0  0  1  0  0  0  0  0  0  0  0  0
   19.7151    2.7150   -6.7494 C   0  0  0  0  0  0  0  0  0  0  0  0
   17.4255    3.7649   -6.3396 C   0  0  0  0  0  0  0  0  0  0  0  0
   17.4767    4.5438   -7.4958 C   0  0  0  0  0  0  0  0  0  0  0  0
   16.6144    5.6107   -7.6820 C   0  0  0  0  0  0  0  0  0  0  0  0
   15.6694    5.9401   -6.7188 C   0  0  0  0  0  0  0  0  0  0  0  0
   14.7511    7.0471   -6.9372 C   0  0  0  0  0  0  0  0  0  0  0  0
   13.8129    7.2424   -7.9395 C   0  0  0  0  0  0  0  0  0  0  0  0
   13.4886    6.3033   -9.0346 C   0  0  0  0  0  0  0  0  0  0  0  0
   13.1320    8.4410   -7.8788 N   0  0  0  0  0  0  0  0  0  0  0  0
   13.5444    9.1280   -6.8372 C   0  0  0  0  0  0  0  0  0  0  0  0
   14.7408    8.3932   -5.8676 S   0  0  0  0  0  0  0  0  0  0  0  0
   15.6137    5.1769   -5.5604 C   0  0  0  0  0  0  0  0  0  0  0  0
   16.4787    4.1125   -5.3769 C   0  0  0  0  0  0  0  0  0  0  0  0
   15.0812   -0.4064   -7.3444 C   0  0  0  0  0  0  0  0  0  0  0  0
   13.8910   -0.5768   -6.4118 C   0  0  1  0  0  0  0  0  0  0  0  0
   12.7466   -1.0893   -7.0918 O   0  0  0  0  0  0  0  0  0  0  0  0
   14.3630   -1.5828   -5.3759 C   0  0  0  0  0  0  0  0  0  0  0  0
   18.1029   -6.7943   -5.1375 C   0  0  0  0  0  0  0  0  0  0  0  0
   18.1032   -4.5453   -4.0472 H   0  0  0  0  0  0  0  0  0  0  0  0
   15.2241   -3.9870   -4.5365 H   0  0  0  0  0  0  0  0  0  0  0  0
   17.9428   -3.7530   -1.8845 H   0  0  0  0  0  0  0  0  0  0  0  0
   16.9154   -2.9955   -0.6823 H   0  0  0  0  0  0  0  0  0  0  0  0
   17.4652   -2.0709   -2.0783 H   0  0  0  0  0  0  0  0  0  0  0  0
   14.5309   -2.4384   -1.1784 H   0  0  0  0  0  0  0  0  0  0  0  0
   13.8511   -2.7105   -2.8039 H   0  0  0  0  0  0  0  0  0  0  0  0
   15.0638   -1.4740   -2.5468 H   0  0  0  0  0  0  0  0  0  0  0  0
   14.4959   -5.2037   -2.5258 H   0  0  0  0  0  0  0  0  0  0  0  0
   15.1085   -4.7662   -0.9340 H   0  0  0  0  0  0  0  0  0  0  0  0
   16.1440   -5.6243   -2.0756 H   0  0  0  0  0  0  0  0  0  0  0  0
   17.1105   -1.0904   -7.0199 H   0  0  0  0  0  0  0  0  0  0  0  0
   18.0168    0.9211   -7.4320 H   0  0  0  0  0  0  0  0  0  0  0  0
   18.4969    2.4722   -5.0287 H   0  0  0  0  0  0  0  0  0  0  0  0
   20.2181    3.6141   -6.3885 H   0  0  0  0  0  0  0  0  0  0  0  0
   19.6450    2.7822   -7.8397 H   0  0  0  0  0  0  0  0  0  0  0  0
   20.3816    1.8845   -6.5060 H   0  0  0  0  0  0  0  0  0  0  0  0
   18.1992    4.3348   -8.2758 H   0  0  0  0  0  0  0  0  0  0  0  0
   16.6911    6.1953   -8.5950 H   0  0  0  0  0  0  0  0  0  0  0  0
   14.2685    6.3195   -9.7995 H   0  0  0  0  0  0  0  0  0  0  0  0
   12.5432    6.5718   -9.5075 H   0  0  0  0  0  0  0  0  0  0  0  0
   13.3897    5.2792   -8.6623 H   0  0  0  0  0  0  0  0  0  0  0  0
   13.1548   10.1059   -6.5961 H   0  0  0  0  0  0  0  0  0  0  0  0
   14.8805    5.3969   -4.7896 H   0  0  0  0  0  0  0  0  0  0  0  0
   16.4008    3.5402   -4.4572 H   0  0  0  0  0  0  0  0  0  0  0  0
   15.0855    0.5768   -7.8266 H   0  0  0  0  0  0  0  0  0  0  0  0
   15.0447   -1.1566   -8.1424 H   0  0  0  0  0  0  0  0  0  0  0  0
   13.6215    0.3729   -5.9355 H   0  0  0  0  0  0  0  0  0  0  0  0
   12.4909   -0.4522   -7.7822 H   0  0  0  0  0  0  0  0  0  0  0  0
   13.9395   -2.5792   -5.5048 H   0  0  0  0  0  0  0  0  0  0  0  0
   14.0757   -1.2264   -4.3880 H   0  0  0  0  0  0  0  0  0  0  0  0
   18.0053   -7.4069   -6.0386 H   0  0  0  0  0  0  0  0  0  0  0  0
   18.1597   -7.4476   -4.2637 H   0  0  0  0  0  0  0  0  0  0  0  0
   19.0211   -6.2045   -5.2187 H   0  0  0  0  0  0  0  0  0  0  0  0
  1  2  2  0  0  0  0
  2  3  1  0  0  0  0
  2 34  1  0  0  0  0
  4  3  1  0  0  0  0
  3 35  1  0  0  0  0
  4  5  1  0  0  0  0
  4 36  1  0  0  0  0
  4  9  1  0  0  0  0
  5  6  1  0  0  0  0
  5  7  1  0  0  0  0
  5  8  1  0  0  0  0
  6 37  1  0  0  0  0
  6 38  1  0  0  0  0
  6 39  1  0  0  0  0
  7 40  1  0  0  0  0
  7 41  1  0  0  0  0
  7 42  1  0  0  0  0
  8 43  1  0  0  0  0
  8 44  1  0  0  0  0
  8 45  1  0  0  0  0
  9 10  2  0  0  0  0
  9 11  1  0  0  0  0
 11 33  1  0  0  0  0
 12 11  1  0  0  0  0
 12 30  1  0  0  0  0
 12 46  1  0  0  0  0
 12 13  1  0  0  0  0
 13 14  2  0  0  0  0
 13 15  1  0  0  0  0
 15 47  1  0  0  0  0
 16 15  1  0  0  0  0
 16 48  1  0  0  0  0
 16 17  1  0  0  0  0
 16 18  1  0  0  0  0
 17 49  1  0  0  0  0
 17 50  1  0  0  0  0
 17 51  1  0  0  0  0
 18 19  1  0  0  0  0
 18 29  2  0  0  0  0
 19 52  1  0  0  0  0
 19 20  2  0  0  0  0
 20 53  1  0  0  0  0
 20 21  1  0  0  0  0
 21 28  2  0  0  0  0
 21 22  1  0  0  0  0
 22 23  2  0  0  0  0
 22 27  1  0  0  0  0
 23 24  1  0  0  0  0
 23 25  1  0  0  0  0
 24 54  1  0  0  0  0
 24 55  1  0  0  0  0
 24 56  1  0  0  0  0
 25 26  2  0  0  0  0
 26 57  1  0  0  0  0
 26 27  1  0  0  0  0
 28 58  1  0  0  0  0
 28 29  1  0  0  0  0
 29 59  1  0  0  0  0
 31 30  1  0  0  0  0
 30 60  1  0  0  0  0
 30 61  1  0  0  0  0
 31 33  1  0  0  0  0
 31 62  1  0  0  0  0
 31 32  1  0  0  0  0
 32 63  1  0  0  0  0
 33 64  1  0  0  0  0
 33 65  1  0  0  0  0
 34 66  1  0  0  0  0
 34 67  1  0  0  0  0
 34 68  1  0  0  0  0
M  ZZC   1 o1
M  ZZC   2 c1
M  ZZC   3 n1
M  ZZC   4 c2
M  ZZC   5 c3
M  ZZC   6 c4
M  ZZC   7 c5
M  ZZC   8 c6
M  ZZC   9 c7
M  ZZC  10 o2
M  ZZC  11 n2
M  ZZC  12 c8
M  ZZC  13 c9
M  ZZC  14 o3
M  ZZC  15 n3
M  ZZC  16 c10
M  ZZC  17 c11
M  ZZC  18 c12
M  ZZC  19 c13
M  ZZC  20 c14
M  ZZC  21 c15
M  ZZC  22 c16
M  ZZC  23 c17
M  ZZC  24 c18
M  ZZC  25 n4
M  ZZC  26 c19
M  ZZC  27 s1
M  ZZC  28 c20
M  ZZC  29 c21
M  ZZC  30 c22
M  ZZC  31 c23
M  ZZC  32 o4
M  ZZC  33 c24
M  ZZC  34 c25
M  ZZC  35 h11
M  ZZC  36 h21
M  ZZC  37 h41
M  ZZC  38 h42
M  ZZC  39 h43
M  ZZC  40 h51
M  ZZC  41 h52
M  ZZC  42 h53
M  ZZC  43 h61
M  ZZC  44 h62
M  ZZC  45 h63
M  ZZC  46 h81
M  ZZC  47 h31
M  ZZC  48 h101
M  ZZC  49 h111
M  ZZC  50 h112
M  ZZC  51 h113
M  ZZC  52 h131
M  ZZC  53 h141
M  ZZC  54 h181
M  ZZC  55 h182
M  ZZC  56 h183
M  ZZC  57 h191
M  ZZC  58 h201
M  ZZC  59 h211
M  ZZC  60 h221
M  ZZC  61 h222
M  ZZC  62 h231
M  ZZC  63 h01
M  ZZC  64 h241
M  ZZC  65 h242
M  ZZC  66 h251
M  ZZC  67 h252
M  ZZC  68 h253
M  ZZM   1 7
M  ZZI   1 81
M  ZZM   2 3
M  ZZI   2 121
M  ZZM   3 10
M  ZZI   3 211
M  ZZM   4 1
M  ZZI   4 113
M  ZZM   5 1
M  ZZI   5 110
M  ZZM   6 1
M  ZZI   6 111
M  ZZM   7 1
M  ZZI   7 111
M  ZZM   8 1
M  ZZI   8 111
M  ZZM   9 3
M  ZZI   9 121
M  ZZM  10 7
M  ZZI  10 81
M  ZZM  11 10
M  ZZI  11 192
M  ZZM  12 1
M  ZZI  12 113
M  ZZM  13 3
M  ZZI  13 121
M  ZZM  14 7
M  ZZI  14 81
M  ZZM  15 10
M  ZZI  15 211
M  ZZM  16 1
M  ZZI  16 113
M  ZZM  17 1
M  ZZI  17 111
M  ZZM  18 37
M  ZZI  18 124
M  ZZM  19 37
M  ZZI  19 125
M  ZZM  20 37
M  ZZI  20 125
M  ZZM  21 37
M  ZZI  21 124
M  ZZM  22 63
M  ZZI  22 104
M  ZZM  23 64
M  ZZI  23 105
M  ZZM  24 1
M  ZZI  24 111
M  ZZM  25 66
M  ZZI  25 222
M  ZZM  26 63
M  ZZI  26 104
M  ZZM  27 44
M  ZZI  27 248
M  ZZM  28 37
M  ZZI  28 125
M  ZZM  29 37
M  ZZI  29 125
M  ZZM  30 1
M  ZZI  30 112
M  ZZM  31 1
M  ZZI  31 113
M  ZZM  32 6
M  ZZI  32 60
M  ZZM  33 1
M  ZZI  33 112
M  ZZM  34 1
M  ZZI  34 111
M  ZZM  35 28
M  ZZI  35 11
M  ZZM  36 5
M  ZZI  36 1
M  ZZM  37 5
M  ZZI  37 1
M  ZZM  38 5
M  ZZI  38 1
M  ZZM  39 5
M  ZZI  39 1
M  ZZM  40 5
M  ZZI  40 1
M  ZZM  41 5
M  ZZI  41 1
M  ZZM  42 5
M  ZZI  42 1
M  ZZM  43 5
M  ZZI  43 1
M  ZZM  44 5
M  ZZI  44 1
M  ZZM  45 5
M  ZZI  45 1
M  ZZM  46 5
M  ZZI  46 1
M  ZZM  47 28
M  ZZI  47 11
M  ZZM  48 5
M  ZZI  48 1
M  ZZM  49 5
M  ZZI  49 1
M  ZZM  50 5
M  ZZI  50 1
M  ZZM  51 5
M  ZZI  51 1
M  ZZM  52 5
M  ZZI  52 1
M  ZZM  53 5
M  ZZI  53 1
M  ZZM  54 5
M  ZZI  54 1
M  ZZM  55 5
M  ZZI  55 1
M  ZZM  56 5
M  ZZI  56 1
M  ZZM  57 5
M  ZZI  57 1
M  ZZM  58 5
M  ZZI  58 1
M  ZZM  59 5
M  ZZI  59 1
M  ZZM  60 5
M  ZZI  60 1
M  ZZM  61 5
M  ZZI  61 1
M  ZZM  62 5
M  ZZI  62 1
M  ZZM  63 21
M  ZZI  63 20
M  ZZM  64 5
M  ZZI  64 1
M  ZZM  65 5
M  ZZI  65 1
M  ZZM  66 5
M  ZZI  66 1
M  ZZM  67 5
M  ZZI  67 1
M  ZZM  68 5
M  ZZI  68 1
M  END
> <IX>
1

> <NAME>
VHL_1ERR_22.pdb

> <Score>
-1.716675

> <Natom>
68

> <Nflex>
8

> <Hbond>
-4.86294

> <Hphob>
-6.782764

> <VwInt>
-27.611193

> <Dsolv>
22.829566

> <SolEl>
23.598334

> <Eintl>
8.741887

> <RecConf>
ND

> <projPath>
VHL_maps/

> <NAME_>
VHL_1ERR_22.pdb

$$$$
