VHL_5T8E_12.pdb
  MOLSOFT 04032206453D

 75 78  0  0  1  0  0  0  0  0999 V2000
   14.6866    1.9981   -7.3098 C   0  0  0  0  0  0  0  0  0  0  0  0
   13.9425    1.6872   -6.0149 C   0  0  0  0  0  0  0  0  0  0  0  0
   13.4831    0.2380   -5.9568 C   0  0  0  0  0  0  0  0  0  0  0  0
   14.6277   -0.6651   -6.0355 N   0  0  0  0  0  0  0  0  0  0  0  0
   14.6720   -1.7920   -5.2169 C   0  0  0  0  0  0  0  0  0  0  0  0
   13.7537   -2.1085   -4.4751 O   0  0  0  0  0  0  0  0  0  0  0  0
   15.9384   -2.6212   -5.3168 C   0  0  0  0  0  0  0  0  0  0  0  0
   16.0499   -3.6891   -4.2150 C   0  0  2  0  0  0  0  0  0  0  0  0
   16.4023   -3.0356   -2.9590 N   0  0  0  0  0  0  0  0  0  0  0  0
   15.5363   -3.0028   -1.8751 C   0  0  0  0  0  0  0  0  0  0  0  0
   14.6224   -3.7991   -1.7195 O   0  0  0  0  0  0  0  0  0  0  0  0
   15.7958   -1.8262   -0.9210 C   0  0  2  0  0  0  0  0  0  0  0  0
   14.8867   -1.7723    0.2258 N   0  0  0  0  0  0  0  0  0  0  0  0
   15.1545   -2.4597    1.4120 C   0  0  0  0  0  0  0  0  0  0  0  0
   16.0996   -3.2315    1.4987 O   0  0  0  0  0  0  0  0  0  0  0  0
   14.2427   -2.1567    2.6121 C   0  0  2  0  0  0  0  0  0  0  0  0
   14.7220   -0.8965    3.3790 C   0  0  0  0  0  0  0  0  0  0  0  0
   16.0863   -1.0507    4.0571 C   0  0  0  0  0  0  0  0  0  0  0  0
   13.6863   -0.4394    4.4076 C   0  0  0  0  0  0  0  0  0  0  0  0
   14.0888   -3.3604    3.4930 C   0  0  0  0  0  0  0  0  0  0  0  0
   12.8100   -3.6694    3.8557 O   0  0  0  0  0  0  0  0  0  0  0  0
   12.8162   -4.7863    4.6959 N   0  0  0  0  0  0  0  0  0  0  0  0
   14.1038   -5.1304    4.8198 C   0  0  0  0  0  0  0  0  0  0  0  0
   14.4930   -6.2922    5.6486 C   0  0  0  0  0  0  0  0  0  0  0  0
   14.9431   -4.2633    4.0846 C   0  0  0  0  0  0  0  0  0  0  0  0
   13.7954   -0.8359   -0.0168 C   0  0  0  0  0  0  0  0  0  0  0  0
   14.0137   -0.3222   -1.4290 C   0  0  1  0  0  0  0  0  0  0  0  0
   13.6428    1.0504   -1.5504 O   0  0  0  0  0  0  0  0  0  0  0  0
   15.5081   -0.5087   -1.6352 C   0  0  0  0  0  0  0  0  0  0  0  0
   17.0201   -4.7941   -4.5933 C   0  0  0  0  0  0  0  0  0  0  0  0
   18.1010   -4.5986   -5.4544 C   0  0  0  0  0  0  0  0  0  0  0  0
   18.9040   -5.6527   -5.8580 C   0  0  0  0  0  0  0  0  0  0  0  0
   18.6551   -6.9293   -5.3986 C   0  0  0  0  0  0  0  0  0  0  0  0
   17.6126   -7.1383   -4.5195 C   0  0  0  0  0  0  0  0  0  0  0  0
   16.8144   -6.0815   -4.1120 C   0  0  0  0  0  0  0  0  0  0  0  0
   15.7010   -0.2904   -6.9569 C   0  0  0  0  0  0  0  0  0  0  0  0
   15.2541    0.7478   -7.9697 C   0  0  0  0  0  0  0  0  0  0  0  0
   14.0173    2.4998   -8.0170 H   0  0  0  0  0  0  0  0  0  0  0  0
   15.4917    2.7094   -7.0985 H   0  0  0  0  0  0  0  0  0  0  0  0
   14.6054    1.8857   -5.1653 H   0  0  0  0  0  0  0  0  0  0  0  0
   13.0939    2.3651   -5.9054 H   0  0  0  0  0  0  0  0  0  0  0  0
   12.9241    0.0603   -5.0329 H   0  0  0  0  0  0  0  0  0  0  0  0
   12.8088    0.0037   -6.7886 H   0  0  0  0  0  0  0  0  0  0  0  0
   15.9300   -3.0851   -6.3086 H   0  0  0  0  0  0  0  0  0  0  0  0
   16.8036   -1.9501   -5.2685 H   0  0  0  0  0  0  0  0  0  0  0  0
   15.0671   -4.1559   -4.0876 H   0  0  0  0  0  0  0  0  0  0  0  0
   17.2645   -2.5025   -2.9286 H   0  0  0  0  0  0  0  0  0  0  0  0
   16.8353   -1.8870   -0.5780 H   0  0  0  0  0  0  0  0  0  0  0  0
   13.2472   -1.9424    2.2127 H   0  0  0  0  0  0  0  0  0  0  0  0
   14.8337   -0.0808    2.6589 H   0  0  0  0  0  0  0  0  0  0  0  0
   16.0596   -1.7674    4.8825 H   0  0  0  0  0  0  0  0  0  0  0  0
   16.4139   -0.0943    4.4763 H   0  0  0  0  0  0  0  0  0  0  0  0
   16.8560   -1.3713    3.3498 H   0  0  0  0  0  0  0  0  0  0  0  0
   13.9783    0.5146    4.8568 H   0  0  0  0  0  0  0  0  0  0  0  0
   13.5677   -1.1627    5.2201 H   0  0  0  0  0  0  0  0  0  0  0  0
   12.7082   -0.2947    3.9411 H   0  0  0  0  0  0  0  0  0  0  0  0
   13.8508   -7.1533    5.4410 H   0  0  0  0  0  0  0  0  0  0  0  0
   14.4100   -6.0513    6.7124 H   0  0  0  0  0  0  0  0  0  0  0  0
   15.5262   -6.5919    5.4496 H   0  0  0  0  0  0  0  0  0  0  0  0
   16.0202   -4.2946    4.0002 H   0  0  0  0  0  0  0  0  0  0  0  0
   12.8303   -1.3419    0.0793 H   0  0  0  0  0  0  0  0  0  0  0  0
   13.8205   -0.0279    0.7198 H   0  0  0  0  0  0  0  0  0  0  0  0
   13.4320   -0.9129   -2.1442 H   0  0  0  0  0  0  0  0  0  0  0  0
   13.8510    1.3282   -2.4597 H   0  0  0  0  0  0  0  0  0  0  0  0
   16.0549    0.3133   -1.1580 H   0  0  0  0  0  0  0  0  0  0  0  0
   15.7775   -0.4883   -2.6956 H   0  0  0  0  0  0  0  0  0  0  0  0
   18.3340   -3.6105   -5.8320 H   0  0  0  0  0  0  0  0  0  0  0  0
   19.7344   -5.4733   -6.5331 H   0  0  0  0  0  0  0  0  0  0  0  0
   19.2818   -7.7583   -5.7116 H   0  0  0  0  0  0  0  0  0  0  0  0
   17.4181   -8.1400   -4.1517 H   0  0  0  0  0  0  0  0  0  0  0  0
   16.0012   -6.2708   -3.4186 H   0  0  0  0  0  0  0  0  0  0  0  0
   16.5340    0.0980   -6.3605 H   0  0  0  0  0  0  0  0  0  0  0  0
   16.0603   -1.1804   -7.4817 H   0  0  0  0  0  0  0  0  0  0  0  0
   14.4786    0.3078   -8.5992 H   0  0  0  0  0  0  0  0  0  0  0  0
   16.0848    1.0096   -8.6312 H   0  0  0  0  0  0  0  0  0  0  0  0
  1 38  1  0  0  0  0
  1 39  1  0  0  0  0
  1  2  1  0  0  0  0
  1 37  1  0  0  0  0
  2 40  1  0  0  0  0
  2 41  1  0  0  0  0
  2  3  1  0  0  0  0
  3 42  1  0  0  0  0
  3 43  1  0  0  0  0
  3  4  1  0  0  0  0
  4 36  1  0  0  0  0
  4  5  1  0  0  0  0
  5  6  2  0  0  0  0
  5  7  1  0  0  0  0
  7 44  1  0  0  0  0
  7 45  1  0  0  0  0
  8  7  1  0  0  0  0
  8 46  1  0  0  0  0
  8 30  1  0  0  0  0
  8  9  1  0  0  0  0
  9 47  1  0  0  0  0
  9 10  1  0  0  0  0
 10 11  2  0  0  0  0
 12 10  1  0  0  0  0
 12 48  1  0  0  0  0
 12 29  1  0  0  0  0
 12 13  1  0  0  0  0
 13 26  1  0  0  0  0
 13 14  1  0  0  0  0
 14 15  2  0  0  0  0
 16 14  1  0  0  0  0
 16 49  1  0  0  0  0
 16 17  1  0  0  0  0
 16 20  1  0  0  0  0
 17 50  1  0  0  0  0
 17 19  1  0  0  0  0
 17 18  1  0  0  0  0
 18 51  1  0  0  0  0
 18 52  1  0  0  0  0
 18 53  1  0  0  0  0
 19 54  1  0  0  0  0
 19 55  1  0  0  0  0
 19 56  1  0  0  0  0
 20 25  2  0  0  0  0
 20 21  1  0  0  0  0
 21 22  1  0  0  0  0
 22 23  2  0  0  0  0
 23 25  1  0  0  0  0
 23 24  1  0  0  0  0
 24 57  1  0  0  0  0
 24 58  1  0  0  0  0
 24 59  1  0  0  0  0
 25 60  1  0  0  0  0
 27 26  1  0  0  0  0
 26 61  1  0  0  0  0
 26 62  1  0  0  0  0
 27 29  1  0  0  0  0
 27 63  1  0  0  0  0
 27 28  1  0  0  0  0
 28 64  1  0  0  0  0
 29 65  1  0  0  0  0
 29 66  1  0  0  0  0
 30 31  1  0  0  0  0
 30 35  2  0  0  0  0
 31 67  1  0  0  0  0
 31 32  2  0  0  0  0
 32 68  1  0  0  0  0
 32 33  1  0  0  0  0
 33 69  1  0  0  0  0
 33 34  2  0  0  0  0
 34 70  1  0  0  0  0
 34 35  1  0  0  0  0
 35 71  1  0  0  0  0
 36 72  1  0  0  0  0
 36 73  1  0  0  0  0
 36 37  1  0  0  0  0
 37 74  1  0  0  0  0
 37 75  1  0  0  0  0
M  ZZC   1 c1
M  ZZC   2 c2
M  ZZC   3 c3
M  ZZC   4 n1
M  ZZC   5 c4
M  ZZC   6 o1
M  ZZC   7 c5
M  ZZC   8 c6
M  ZZC   9 n2
M  ZZC  10 c7
M  ZZC  11 o2
M  ZZC  12 c8
M  ZZC  13 n3
M  ZZC  14 c9
M  ZZC  15 o3
M  ZZC  16 c10
M  ZZC  17 c11
M  ZZC  18 c12
M  ZZC  19 c13
M  ZZC  20 c14
M  ZZC  21 o4
M  ZZC  22 n4
M  ZZC  23 c15
M  ZZC  24 c16
M  ZZC  25 c17
M  ZZC  26 c18
M  ZZC  27 c19
M  ZZC  28 o5
M  ZZC  29 c20
M  ZZC  30 c21
M  ZZC  31 c22
M  ZZC  32 c23
M  ZZC  33 c24
M  ZZC  34 c25
M  ZZC  35 c26
M  ZZC  36 c27
M  ZZC  37 c28
M  ZZC  38 h11
M  ZZC  39 h12
M  ZZC  40 h21
M  ZZC  41 h22
M  ZZC  42 h31
M  ZZC  43 h32
M  ZZC  44 h51
M  ZZC  45 h52
M  ZZC  46 h61
M  ZZC  47 h01
M  ZZC  48 h81
M  ZZC  49 h101
M  ZZC  50 h111
M  ZZC  51 h121
M  ZZC  52 h122
M  ZZC  53 h123
M  ZZC  54 h131
M  ZZC  55 h132
M  ZZC  56 h133
M  ZZC  57 h161
M  ZZC  58 h162
M  ZZC  59 h163
M  ZZC  60 h171
M  ZZC  61 h181
M  ZZC  62 h182
M  ZZC  63 h191
M  ZZC  64 h02
M  ZZC  65 h201
M  ZZC  66 h202
M  ZZC  67 h221
M  ZZC  68 h231
M  ZZC  69 h241
M  ZZC  70 h251
M  ZZC  71 h261
M  ZZC  72 h271
M  ZZC  73 h272
M  ZZC  74 h281
M  ZZC  75 h282
M  ZZM   1 1
M  ZZI   1 112
M  ZZM   2 1
M  ZZI   2 112
M  ZZM   3 1
M  ZZI   3 112
M  ZZM   4 10
M  ZZI   4 192
M  ZZM   5 3
M  ZZI   5 121
M  ZZM   6 7
M  ZZI   6 81
M  ZZM   7 1
M  ZZI   7 112
M  ZZM   8 1
M  ZZI   8 113
M  ZZM   9 10
M  ZZI   9 211
M  ZZM  10 3
M  ZZI  10 121
M  ZZM  11 7
M  ZZI  11 81
M  ZZM  12 1
M  ZZI  12 113
M  ZZM  13 10
M  ZZI  13 192
M  ZZM  14 3
M  ZZI  14 121
M  ZZM  15 7
M  ZZI  15 81
M  ZZM  16 1
M  ZZI  16 113
M  ZZM  17 1
M  ZZI  17 113
M  ZZM  18 1
M  ZZI  18 111
M  ZZM  19 1
M  ZZI  19 111
M  ZZM  20 63
M  ZZI  20 104
M  ZZM  21 59
M  ZZI  21 56
M  ZZM  22 65
M  ZZI  22 207
M  ZZM  23 64
M  ZZI  23 105
M  ZZM  24 1
M  ZZI  24 111
M  ZZM  25 64
M  ZZI  25 105
M  ZZM  26 1
M  ZZI  26 112
M  ZZM  27 1
M  ZZI  27 113
M  ZZM  28 6
M  ZZI  28 60
M  ZZM  29 1
M  ZZI  29 112
M  ZZM  30 37
M  ZZI  30 124
M  ZZM  31 37
M  ZZI  31 125
M  ZZM  32 37
M  ZZI  32 125
M  ZZM  33 37
M  ZZI  33 125
M  ZZM  34 37
M  ZZI  34 125
M  ZZM  35 37
M  ZZI  35 125
M  ZZM  36 1
M  ZZI  36 112
M  ZZM  37 1
M  ZZI  37 112
M  ZZM  38 5
M  ZZI  38 1
M  ZZM  39 5
M  ZZI  39 1
M  ZZM  40 5
M  ZZI  40 1
M  ZZM  41 5
M  ZZI  41 1
M  ZZM  42 5
M  ZZI  42 1
M  ZZM  43 5
M  ZZI  43 1
M  ZZM  44 5
M  ZZI  44 1
M  ZZM  45 5
M  ZZI  45 1
M  ZZM  46 5
M  ZZI  46 1
M  ZZM  47 28
M  ZZI  47 11
M  ZZM  48 5
M  ZZI  48 1
M  ZZM  49 5
M  ZZI  49 1
M  ZZM  50 5
M  ZZI  50 1
M  ZZM  51 5
M  ZZI  51 1
M  ZZM  52 5
M  ZZI  52 1
M  ZZM  53 5
M  ZZI  53 1
M  ZZM  54 5
M  ZZI  54 1
M  ZZM  55 5
M  ZZI  55 1
M  ZZM  56 5
M  ZZI  56 1
M  ZZM  57 5
M  ZZI  57 1
M  ZZM  58 5
M  ZZI  58 1
M  ZZM  59 5
M  ZZI  59 1
M  ZZM  60 5
M  ZZI  60 1
M  ZZM  61 5
M  ZZI  61 1
M  ZZM  62 5
M  ZZI  62 1
M  ZZM  63 5
M  ZZI  63 1
M  ZZM  64 21
M  ZZI  64 20
M  ZZM  65 5
M  ZZI  65 1
M  ZZM  66 5
M  ZZI  66 1
M  ZZM  67 5
M  ZZI  67 1
M  ZZM  68 5
M  ZZI  68 1
M  ZZM  69 5
M  ZZI  69 1
M  ZZM  70 5
M  ZZI  70 1
M  ZZM  71 5
M  ZZI  71 1
M  ZZM  72 5
M  ZZI  72 1
M  ZZM  73 5
M  ZZI  73 1
M  ZZM  74 5
M  ZZI  74 1
M  ZZM  75 5
M  ZZI  75 1
M  END
> <IX>
1

> <NAME>
VHL_5T8E_12.pdb

> <Score>
1.104849

> <Natom>
75

> <Nflex>
11

> <Hbond>
-0.311297

> <Hphob>
-6.896697

> <VwInt>
-33.050043

> <Dsolv>
17.656215

> <SolEl>
20.26276

> <Eintl>
10.579463

> <RecConf>
ND

> <projPath>
VHL_maps/

> <NAME_>
VHL_5T8E_12.pdb

$$$$
