VHL_5EU1_15.pdb
  MOLSOFT 04032206413D

 70 73  0  0  1  0  0  0  0  0999 V2000
   18.4760   -5.7246   -6.2835 F   0  0  0  0  0  0  0  0  0  0  0  0
   17.4756   -6.3341   -5.5343 C   0  0  0  0  0  0  0  0  0  0  0  0
   16.4048   -5.4366   -5.0395 C   0  0  0  0  0  0  0  0  0  0  0  0
   15.2490   -5.5548   -5.4306 O   0  0  0  0  0  0  0  0  0  0  0  0
   16.8530   -4.4684   -4.1691 N   0  0  0  0  0  0  0  0  0  0  0  0
   16.0253   -3.3135   -3.8158 C   0  0  1  0  0  0  0  0  0  0  0  0
   15.9694   -3.0424   -2.2864 C   0  0  0  0  0  0  0  0  0  0  0  0
   14.9344   -1.9569   -1.9587 C   0  0  0  0  0  0  0  0  0  0  0  0
   17.3221   -2.6039   -1.7092 C   0  0  0  0  0  0  0  0  0  0  0  0
   15.5281   -4.3284   -1.5778 C   0  0  0  0  0  0  0  0  0  0  0  0
   16.6176   -2.1837   -4.6757 C   0  0  0  0  0  0  0  0  0  0  0  0
   17.8282   -2.0029   -4.7406 O   0  0  0  0  0  0  0  0  0  0  0  0
   15.7233   -1.4103   -5.4124 N   0  0  0  0  0  0  0  0  0  0  0  0
   16.1998   -0.4860   -6.4282 C   0  0  2  0  0  0  0  0  0  0  0  0
   16.7120    0.8023   -5.7818 C   0  0  0  0  0  0  0  0  0  0  0  0
   16.3208    1.1870   -4.6880 O   0  0  0  0  0  0  0  0  0  0  0  0
   17.6199    1.4951   -6.5652 N   0  0  0  0  0  0  0  0  0  0  0  0
   18.2424    2.7323   -6.1234 C   0  0  0  0  0  0  0  0  0  0  0  0
   17.3590    3.9425   -6.3196 C   0  0  0  0  0  0  0  0  0  0  0  0
   17.4956    4.8003   -7.4091 C   0  0  0  0  0  0  0  0  0  0  0  0
   18.5046    4.5791   -8.3273 O   0  0  0  0  0  0  0  0  0  0  0  0
   16.6473    5.8801   -7.5992 C   0  0  0  0  0  0  0  0  0  0  0  0
   15.6397    6.1402   -6.6807 C   0  0  0  0  0  0  0  0  0  0  0  0
   14.7241    7.2437   -6.8969 C   0  0  0  0  0  0  0  0  0  0  0  0
   13.7603    7.4152   -7.8770 C   0  0  0  0  0  0  0  0  0  0  0  0
   13.4142    6.4535   -8.9467 C   0  0  0  0  0  0  0  0  0  0  0  0
   13.0825    8.6143   -7.8196 N   0  0  0  0  0  0  0  0  0  0  0  0
   13.5259    9.3221   -6.8042 C   0  0  0  0  0  0  0  0  0  0  0  0
   14.7493    8.6082   -5.8548 S   0  0  0  0  0  0  0  0  0  0  0  0
   15.5082    5.3137   -5.5736 C   0  0  0  0  0  0  0  0  0  0  0  0
   16.3573    4.2369   -5.3961 C   0  0  0  0  0  0  0  0  0  0  0  0
   14.9866   -0.2478   -7.3165 C   0  0  0  0  0  0  0  0  0  0  0  0
   13.8019   -0.4082   -6.3732 C   0  0  1  0  0  0  0  0  0  0  0  0
   12.6431   -0.8943   -7.0498 O   0  0  0  0  0  0  0  0  0  0  0  0
   14.2740   -1.4393   -5.3635 C   0  0  0  0  0  0  0  0  0  0  0  0
   17.1133   -7.7287   -5.9578 C   0  0  0  0  0  0  0  0  0  0  0  0
   17.9487   -7.5142   -4.7383 C   0  0  0  0  0  0  0  0  0  0  0  0
   17.8492   -4.4382   -3.9643 H   0  0  0  0  0  0  0  0  0  0  0  0
   15.0119   -3.5349   -4.1576 H   0  0  0  0  0  0  0  0  0  0  0  0
   15.2004   -0.9948   -2.4066 H   0  0  0  0  0  0  0  0  0  0  0  0
   14.8541   -1.7942   -0.8789 H   0  0  0  0  0  0  0  0  0  0  0  0
   13.9365   -2.2349   -2.3123 H   0  0  0  0  0  0  0  0  0  0  0  0
   17.2742   -2.4951   -0.6209 H   0  0  0  0  0  0  0  0  0  0  0  0
   17.6489   -1.6412   -2.1137 H   0  0  0  0  0  0  0  0  0  0  0  0
   18.1013   -3.3352   -1.9226 H   0  0  0  0  0  0  0  0  0  0  0  0
   15.3504   -4.1539   -0.5125 H   0  0  0  0  0  0  0  0  0  0  0  0
   16.2859   -5.1103   -1.6623 H   0  0  0  0  0  0  0  0  0  0  0  0
   14.6022   -4.7257   -2.0043 H   0  0  0  0  0  0  0  0  0  0  0  0
   17.0182   -0.9475   -6.9909 H   0  0  0  0  0  0  0  0  0  0  0  0
   17.9705    1.0640   -7.4158 H   0  0  0  0  0  0  0  0  0  0  0  0
   18.5051    2.6341   -5.0641 H   0  0  0  0  0  0  0  0  0  0  0  0
   19.1864    2.8355   -6.6678 H   0  0  0  0  0  0  0  0  0  0  0  0
   18.5722    5.3717   -8.8913 H   0  0  0  0  0  0  0  0  0  0  0  0
   16.7654    6.5224   -8.4676 H   0  0  0  0  0  0  0  0  0  0  0  0
   14.1430    6.5016   -9.7595 H   0  0  0  0  0  0  0  0  0  0  0  0
   12.4290    6.6724   -9.3596 H   0  0  0  0  0  0  0  0  0  0  0  0
   13.3866    5.4280   -8.5665 H   0  0  0  0  0  0  0  0  0  0  0  0
   13.1454   10.3046   -6.5693 H   0  0  0  0  0  0  0  0  0  0  0  0
   14.7249    5.4931   -4.8422 H   0  0  0  0  0  0  0  0  0  0  0  0
   16.2220    3.6157   -4.5163 H   0  0  0  0  0  0  0  0  0  0  0  0
   14.9874    0.7298   -7.8099 H   0  0  0  0  0  0  0  0  0  0  0  0
   14.9451   -1.0071   -8.1055 H   0  0  0  0  0  0  0  0  0  0  0  0
   13.5569    0.5387   -5.8786 H   0  0  0  0  0  0  0  0  0  0  0  0
   12.4134   -0.2646   -7.7557 H   0  0  0  0  0  0  0  0  0  0  0  0
   13.9152   -2.4441   -5.5925 H   0  0  0  0  0  0  0  0  0  0  0  0
   13.9274   -1.1870   -4.3604 H   0  0  0  0  0  0  0  0  0  0  0  0
   16.1000   -8.0655   -5.8050 H   0  0  0  0  0  0  0  0  0  0  0  0
   17.5800   -8.0984   -6.8552 H   0  0  0  0  0  0  0  0  0  0  0  0
   18.9960   -7.7705   -4.8137 H   0  0  0  0  0  0  0  0  0  0  0  0
   17.4966   -7.6984   -3.7744 H   0  0  0  0  0  0  0  0  0  0  0  0
  2  1  1  0  0  0  0
  2 36  1  0  0  0  0
  2  3  1  0  0  0  0
  2 37  1  0  0  0  0
  3  4  2  0  0  0  0
  3  5  1  0  0  0  0
  5 38  1  0  0  0  0
  6  5  1  0  0  0  0
  6 39  1  0  0  0  0
  6  7  1  0  0  0  0
  6 11  1  0  0  0  0
  7  8  1  0  0  0  0
  7  9  1  0  0  0  0
  7 10  1  0  0  0  0
  8 40  1  0  0  0  0
  8 41  1  0  0  0  0
  8 42  1  0  0  0  0
  9 43  1  0  0  0  0
  9 44  1  0  0  0  0
  9 45  1  0  0  0  0
 10 46  1  0  0  0  0
 10 47  1  0  0  0  0
 10 48  1  0  0  0  0
 11 12  2  0  0  0  0
 11 13  1  0  0  0  0
 13 35  1  0  0  0  0
 14 13  1  0  0  0  0
 14 32  1  0  0  0  0
 14 49  1  0  0  0  0
 14 15  1  0  0  0  0
 15 16  2  0  0  0  0
 15 17  1  0  0  0  0
 17 50  1  0  0  0  0
 17 18  1  0  0  0  0
 18 51  1  0  0  0  0
 18 52  1  0  0  0  0
 18 19  1  0  0  0  0
 19 20  2  0  0  0  0
 19 31  1  0  0  0  0
 20 21  1  0  0  0  0
 20 22  1  0  0  0  0
 21 53  1  0  0  0  0
 22 54  1  0  0  0  0
 22 23  2  0  0  0  0
 23 30  1  0  0  0  0
 23 24  1  0  0  0  0
 24 25  2  0  0  0  0
 24 29  1  0  0  0  0
 25 26  1  0  0  0  0
 25 27  1  0  0  0  0
 26 55  1  0  0  0  0
 26 56  1  0  0  0  0
 26 57  1  0  0  0  0
 27 28  2  0  0  0  0
 28 58  1  0  0  0  0
 28 29  1  0  0  0  0
 30 59  1  0  0  0  0
 30 31  2  0  0  0  0
 31 60  1  0  0  0  0
 33 32  1  0  0  0  0
 32 61  1  0  0  0  0
 32 62  1  0  0  0  0
 33 35  1  0  0  0  0
 33 63  1  0  0  0  0
 33 34  1  0  0  0  0
 34 64  1  0  0  0  0
 35 65  1  0  0  0  0
 35 66  1  0  0  0  0
 36 67  1  0  0  0  0
 36 68  1  0  0  0  0
 36 37  1  0  0  0  0
 37 69  1  0  0  0  0
 37 70  1  0  0  0  0
M  ZZC   1 f1
M  ZZC   2 c1
M  ZZC   3 c2
M  ZZC   4 o1
M  ZZC   5 n1
M  ZZC   6 c3
M  ZZC   7 c4
M  ZZC   8 c5
M  ZZC   9 c6
M  ZZC  10 c7
M  ZZC  11 c8
M  ZZC  12 o2
M  ZZC  13 n2
M  ZZC  14 c9
M  ZZC  15 c10
M  ZZC  16 o3
M  ZZC  17 n3
M  ZZC  18 c11
M  ZZC  19 c12
M  ZZC  20 c13
M  ZZC  21 o4
M  ZZC  22 c14
M  ZZC  23 c15
M  ZZC  24 c16
M  ZZC  25 c17
M  ZZC  26 c18
M  ZZC  27 n4
M  ZZC  28 c19
M  ZZC  29 s1
M  ZZC  30 c20
M  ZZC  31 c21
M  ZZC  32 c22
M  ZZC  33 c23
M  ZZC  34 o5
M  ZZC  35 c24
M  ZZC  36 c25
M  ZZC  37 c26
M  ZZC  38 h11
M  ZZC  39 h31
M  ZZC  40 h51
M  ZZC  41 h52
M  ZZC  42 h53
M  ZZC  43 h61
M  ZZC  44 h62
M  ZZC  45 h63
M  ZZC  46 h71
M  ZZC  47 h72
M  ZZC  48 h73
M  ZZC  49 h91
M  ZZC  50 h01
M  ZZC  51 h111
M  ZZC  52 h112
M  ZZC  53 h41
M  ZZC  54 h141
M  ZZC  55 h181
M  ZZC  56 h182
M  ZZC  57 h183
M  ZZC  58 h191
M  ZZC  59 h201
M  ZZC  60 h211
M  ZZC  61 h221
M  ZZC  62 h222
M  ZZC  63 h231
M  ZZC  64 h02
M  ZZC  65 h241
M  ZZC  66 h242
M  ZZC  67 h251
M  ZZC  68 h252
M  ZZC  69 h261
M  ZZC  70 h262
M  ZZM   1 11
M  ZZI   1 90
M  ZZM   2 22
M  ZZI   2 109
M  ZZM   3 3
M  ZZI   3 121
M  ZZM   4 7
M  ZZI   4 81
M  ZZM   5 10
M  ZZI   5 211
M  ZZM   6 1
M  ZZI   6 113
M  ZZM   7 1
M  ZZI   7 110
M  ZZM   8 1
M  ZZI   8 111
M  ZZM   9 1
M  ZZI   9 111
M  ZZM  10 1
M  ZZI  10 111
M  ZZM  11 3
M  ZZI  11 121
M  ZZM  12 7
M  ZZI  12 81
M  ZZM  13 10
M  ZZI  13 192
M  ZZM  14 1
M  ZZI  14 113
M  ZZM  15 3
M  ZZI  15 121
M  ZZM  16 7
M  ZZI  16 81
M  ZZM  17 10
M  ZZI  17 211
M  ZZM  18 1
M  ZZI  18 112
M  ZZM  19 37
M  ZZI  19 124
M  ZZM  20 37
M  ZZI  20 124
M  ZZM  21 6
M  ZZI  21 62
M  ZZM  22 37
M  ZZI  22 125
M  ZZM  23 37
M  ZZI  23 124
M  ZZM  24 63
M  ZZI  24 104
M  ZZM  25 64
M  ZZI  25 105
M  ZZM  26 1
M  ZZI  26 111
M  ZZM  27 66
M  ZZI  27 222
M  ZZM  28 63
M  ZZI  28 104
M  ZZM  29 44
M  ZZI  29 248
M  ZZM  30 37
M  ZZI  30 125
M  ZZM  31 37
M  ZZI  31 125
M  ZZM  32 1
M  ZZI  32 112
M  ZZM  33 1
M  ZZI  33 113
M  ZZM  34 6
M  ZZI  34 60
M  ZZM  35 1
M  ZZI  35 112
M  ZZM  36 22
M  ZZI  36 109
M  ZZM  37 22
M  ZZI  37 109
M  ZZM  38 28
M  ZZI  38 11
M  ZZM  39 5
M  ZZI  39 1
M  ZZM  40 5
M  ZZI  40 1
M  ZZM  41 5
M  ZZI  41 1
M  ZZM  42 5
M  ZZI  42 1
M  ZZM  43 5
M  ZZI  43 1
M  ZZM  44 5
M  ZZI  44 1
M  ZZM  45 5
M  ZZI  45 1
M  ZZM  46 5
M  ZZI  46 1
M  ZZM  47 5
M  ZZI  47 1
M  ZZM  48 5
M  ZZI  48 1
M  ZZM  49 5
M  ZZI  49 1
M  ZZM  50 28
M  ZZI  50 11
M  ZZM  51 5
M  ZZI  51 1
M  ZZM  52 5
M  ZZI  52 1
M  ZZM  53 29
M  ZZI  53 27
M  ZZM  54 5
M  ZZI  54 1
M  ZZM  55 5
M  ZZI  55 1
M  ZZM  56 5
M  ZZI  56 1
M  ZZM  57 5
M  ZZI  57 1
M  ZZM  58 5
M  ZZI  58 1
M  ZZM  59 5
M  ZZI  59 1
M  ZZM  60 5
M  ZZI  60 1
M  ZZM  61 5
M  ZZI  61 1
M  ZZM  62 5
M  ZZI  62 1
M  ZZM  63 5
M  ZZI  63 1
M  ZZM  64 21
M  ZZI  64 20
M  ZZM  65 5
M  ZZI  65 1
M  ZZM  66 5
M  ZZI  66 1
M  ZZM  67 5
M  ZZI  67 1
M  ZZM  68 5
M  ZZI  68 1
M  ZZM  69 5
M  ZZI  69 1
M  ZZM  70 5
M  ZZI  70 1
M  END
> <IX>
1

> <NAME>
VHL_5EU1_15.pdb

> <Score>
-3.271298

> <Natom>
70

> <Nflex>
9

> <Hbond>
-4.890877

> <Hphob>
-6.584232

> <VwInt>
-27.057244

> <Dsolv>
23.842261

> <SolEl>
20.383058

> <Eintl>
6.394643

> <RecConf>
ND

> <projPath>
VHL_maps/

> <NAME_>
VHL_5EU1_15.pdb

$$$$
