VHL_5F1H_9.pdb
  MOLSOFT 04032206413D

 70 73  0  0  1  0  0  0  0  0999 V2000
   18.7439   -5.3918   -5.9366 F   0  0  0  0  0  0  0  0  0  0  0  0
   17.7016   -5.9729   -5.2201 C   0  0  0  0  0  0  0  0  0  0  0  0
   16.8207   -5.0302   -4.4644 C   0  0  0  0  0  0  0  0  0  0  0  0
   15.7529   -5.3936   -3.9935 O   0  0  0  0  0  0  0  0  0  0  0  0
   17.2998   -3.7399   -4.3697 N   0  0  0  0  0  0  0  0  0  0  0  0
   16.4578   -2.6184   -3.9338 C   0  0  1  0  0  0  0  0  0  0  0  0
   16.6606   -2.1808   -2.4502 C   0  0  0  0  0  0  0  0  0  0  0  0
   15.6317   -1.1055   -2.0681 C   0  0  0  0  0  0  0  0  0  0  0  0
   18.0616   -1.6113   -2.1904 C   0  0  0  0  0  0  0  0  0  0  0  0
   16.4372   -3.3759   -1.5092 C   0  0  0  0  0  0  0  0  0  0  0  0
   16.7414   -1.5118   -4.9710 C   0  0  0  0  0  0  0  0  0  0  0  0
   17.8921   -1.1977   -5.2524 O   0  0  0  0  0  0  0  0  0  0  0  0
   15.6405   -0.9397   -5.6108 N   0  0  0  0  0  0  0  0  0  0  0  0
   15.8061   -0.0953   -6.7879 C   0  0  2  0  0  0  0  0  0  0  0  0
   16.1212    1.3597   -6.4203 C   0  0  0  0  0  0  0  0  0  0  0  0
   15.3232    2.0927   -5.8520 O   0  0  0  0  0  0  0  0  0  0  0  0
   17.4020    1.7454   -6.7650 N   0  0  0  0  0  0  0  0  0  0  0  0
   17.9295    3.0670   -6.4701 C   0  0  0  0  0  0  0  0  0  0  0  0
   19.3321    3.2984   -6.9900 C   0  0  0  0  0  0  0  0  0  0  0  0
   20.2787    2.2834   -7.0417 C   0  0  0  0  0  0  0  0  0  0  0  0
   19.9342    1.0222   -6.6132 O   0  0  0  0  0  0  0  0  0  0  0  0
   21.5647    2.4854   -7.4981 C   0  0  0  0  0  0  0  0  0  0  0  0
   21.9717    3.7464   -7.8944 C   0  0  0  0  0  0  0  0  0  0  0  0
   23.3471    3.9458   -8.3188 C   0  0  0  0  0  0  0  0  0  0  0  0
   24.4794    4.2472   -7.5758 C   0  0  0  0  0  0  0  0  0  0  0  0
   24.5414    4.5049   -6.1191 C   0  0  0  0  0  0  0  0  0  0  0  0
   25.6567    4.2816   -8.2955 N   0  0  0  0  0  0  0  0  0  0  0  0
   25.4085    4.0266   -9.5607 C   0  0  0  0  0  0  0  0  0  0  0  0
   23.7762    3.7387   -9.9680 S   0  0  0  0  0  0  0  0  0  0  0  0
   21.0490    4.7865   -7.8423 C   0  0  0  0  0  0  0  0  0  0  0  0
   19.7491    4.5650   -7.3990 C   0  0  0  0  0  0  0  0  0  0  0  0
   14.4714   -0.2160   -7.5042 C   0  0  0  0  0  0  0  0  0  0  0  0
   13.4574   -0.4376   -6.3932 C   0  0  1  0  0  0  0  0  0  0  0  0
   12.3346   -1.1928   -6.8507 O   0  0  0  0  0  0  0  0  0  0  0  0
   14.2388   -1.2385   -5.3675 C   0  0  0  0  0  0  0  0  0  0  0  0
   17.1217   -7.2099   -5.8681 C   0  0  0  0  0  0  0  0  0  0  0  0
   18.0077   -7.3398   -4.6747 C   0  0  0  0  0  0  0  0  0  0  0  0
   18.2245   -3.5440   -4.7466 H   0  0  0  0  0  0  0  0  0  0  0  0
   15.4257   -2.9596   -4.0384 H   0  0  0  0  0  0  0  0  0  0  0  0
   15.7365   -0.2125   -2.6930 H   0  0  0  0  0  0  0  0  0  0  0  0
   15.7563   -0.7837   -1.0289 H   0  0  0  0  0  0  0  0  0  0  0  0
   14.6040   -1.4612   -2.1905 H   0  0  0  0  0  0  0  0  0  0  0  0
   18.2154   -1.3951   -1.1284 H   0  0  0  0  0  0  0  0  0  0  0  0
   18.2332   -0.6761   -2.7311 H   0  0  0  0  0  0  0  0  0  0  0  0
   18.8360   -2.3166   -2.4894 H   0  0  0  0  0  0  0  0  0  0  0  0
   16.5046   -3.0776   -0.4580 H   0  0  0  0  0  0  0  0  0  0  0  0
   17.1820   -4.1592   -1.6630 H   0  0  0  0  0  0  0  0  0  0  0  0
   15.4483   -3.8233   -1.6551 H   0  0  0  0  0  0  0  0  0  0  0  0
   16.6105   -0.4941   -7.4174 H   0  0  0  0  0  0  0  0  0  0  0  0
   18.0543    1.0398   -7.1023 H   0  0  0  0  0  0  0  0  0  0  0  0
   17.2355    3.7953   -6.9045 H   0  0  0  0  0  0  0  0  0  0  0  0
   17.9137    3.2013   -5.3832 H   0  0  0  0  0  0  0  0  0  0  0  0
   20.3797    0.3927   -7.2083 H   0  0  0  0  0  0  0  0  0  0  0  0
   22.2575    1.6530   -7.5315 H   0  0  0  0  0  0  0  0  0  0  0  0
   23.9591    5.3931   -5.8576 H   0  0  0  0  0  0  0  0  0  0  0  0
   25.5722    4.6685   -5.7912 H   0  0  0  0  0  0  0  0  0  0  0  0
   24.1459    3.6559   -5.5559 H   0  0  0  0  0  0  0  0  0  0  0  0
   26.1874    4.0001  -10.3094 H   0  0  0  0  0  0  0  0  0  0  0  0
   21.3400    5.7872   -8.1479 H   0  0  0  0  0  0  0  0  0  0  0  0
   19.0562    5.4011   -7.3709 H   0  0  0  0  0  0  0  0  0  0  0  0
   14.2220    0.6484   -8.1289 H   0  0  0  0  0  0  0  0  0  0  0  0
   14.4996   -1.0959   -8.1538 H   0  0  0  0  0  0  0  0  0  0  0  0
   13.1059    0.5095   -5.9695 H   0  0  0  0  0  0  0  0  0  0  0  0
   11.8744   -0.6750   -7.5365 H   0  0  0  0  0  0  0  0  0  0  0  0
   14.0666   -2.3133   -5.4782 H   0  0  0  0  0  0  0  0  0  0  0  0
   13.9646   -0.9577   -4.3480 H   0  0  0  0  0  0  0  0  0  0  0  0
   16.0724   -7.4291   -5.7377 H   0  0  0  0  0  0  0  0  0  0  0  0
   17.5297   -7.5478   -6.8094 H   0  0  0  0  0  0  0  0  0  0  0  0
   18.9994   -7.7352   -4.8471 H   0  0  0  0  0  0  0  0  0  0  0  0
   17.5484   -7.6418   -3.7441 H   0  0  0  0  0  0  0  0  0  0  0  0
  2  1  1  0  0  0  0
  2 36  1  0  0  0  0
  2  3  1  0  0  0  0
  2 37  1  0  0  0  0
  3  4  2  0  0  0  0
  3  5  1  0  0  0  0
  5 38  1  0  0  0  0
  6  5  1  0  0  0  0
  6 39  1  0  0  0  0
  6  7  1  0  0  0  0
  6 11  1  0  0  0  0
  7  8  1  0  0  0  0
  7  9  1  0  0  0  0
  7 10  1  0  0  0  0
  8 40  1  0  0  0  0
  8 41  1  0  0  0  0
  8 42  1  0  0  0  0
  9 43  1  0  0  0  0
  9 44  1  0  0  0  0
  9 45  1  0  0  0  0
 10 46  1  0  0  0  0
 10 47  1  0  0  0  0
 10 48  1  0  0  0  0
 11 12  2  0  0  0  0
 11 13  1  0  0  0  0
 13 35  1  0  0  0  0
 14 13  1  0  0  0  0
 14 32  1  0  0  0  0
 14 49  1  0  0  0  0
 14 15  1  0  0  0  0
 15 16  2  0  0  0  0
 15 17  1  0  0  0  0
 17 50  1  0  0  0  0
 17 18  1  0  0  0  0
 18 51  1  0  0  0  0
 18 52  1  0  0  0  0
 18 19  1  0  0  0  0
 19 20  2  0  0  0  0
 19 31  1  0  0  0  0
 20 21  1  0  0  0  0
 20 22  1  0  0  0  0
 21 53  1  0  0  0  0
 22 54  1  0  0  0  0
 22 23  2  0  0  0  0
 23 30  1  0  0  0  0
 23 24  1  0  0  0  0
 24 25  2  0  0  0  0
 24 29  1  0  0  0  0
 25 26  1  0  0  0  0
 25 27  1  0  0  0  0
 26 55  1  0  0  0  0
 26 56  1  0  0  0  0
 26 57  1  0  0  0  0
 27 28  2  0  0  0  0
 28 58  1  0  0  0  0
 28 29  1  0  0  0  0
 30 59  1  0  0  0  0
 30 31  2  0  0  0  0
 31 60  1  0  0  0  0
 33 32  1  0  0  0  0
 32 61  1  0  0  0  0
 32 62  1  0  0  0  0
 33 35  1  0  0  0  0
 33 63  1  0  0  0  0
 33 34  1  0  0  0  0
 34 64  1  0  0  0  0
 35 65  1  0  0  0  0
 35 66  1  0  0  0  0
 36 67  1  0  0  0  0
 36 68  1  0  0  0  0
 36 37  1  0  0  0  0
 37 69  1  0  0  0  0
 37 70  1  0  0  0  0
M  ZZC   1 f1
M  ZZC   2 c1
M  ZZC   3 c2
M  ZZC   4 o1
M  ZZC   5 n1
M  ZZC   6 c3
M  ZZC   7 c4
M  ZZC   8 c5
M  ZZC   9 c6
M  ZZC  10 c7
M  ZZC  11 c8
M  ZZC  12 o2
M  ZZC  13 n2
M  ZZC  14 c9
M  ZZC  15 c10
M  ZZC  16 o3
M  ZZC  17 n3
M  ZZC  18 c11
M  ZZC  19 c12
M  ZZC  20 c13
M  ZZC  21 o4
M  ZZC  22 c14
M  ZZC  23 c15
M  ZZC  24 c16
M  ZZC  25 c17
M  ZZC  26 c18
M  ZZC  27 n4
M  ZZC  28 c19
M  ZZC  29 s1
M  ZZC  30 c20
M  ZZC  31 c21
M  ZZC  32 c22
M  ZZC  33 c23
M  ZZC  34 o5
M  ZZC  35 c24
M  ZZC  36 c25
M  ZZC  37 c26
M  ZZC  38 h11
M  ZZC  39 h31
M  ZZC  40 h51
M  ZZC  41 h52
M  ZZC  42 h53
M  ZZC  43 h61
M  ZZC  44 h62
M  ZZC  45 h63
M  ZZC  46 h71
M  ZZC  47 h72
M  ZZC  48 h73
M  ZZC  49 h91
M  ZZC  50 h01
M  ZZC  51 h111
M  ZZC  52 h112
M  ZZC  53 h41
M  ZZC  54 h141
M  ZZC  55 h181
M  ZZC  56 h182
M  ZZC  57 h183
M  ZZC  58 h191
M  ZZC  59 h201
M  ZZC  60 h211
M  ZZC  61 h221
M  ZZC  62 h222
M  ZZC  63 h231
M  ZZC  64 h02
M  ZZC  65 h241
M  ZZC  66 h242
M  ZZC  67 h251
M  ZZC  68 h252
M  ZZC  69 h261
M  ZZC  70 h262
M  ZZM   1 11
M  ZZI   1 90
M  ZZM   2 22
M  ZZI   2 109
M  ZZM   3 3
M  ZZI   3 121
M  ZZM   4 7
M  ZZI   4 81
M  ZZM   5 10
M  ZZI   5 211
M  ZZM   6 1
M  ZZI   6 113
M  ZZM   7 1
M  ZZI   7 110
M  ZZM   8 1
M  ZZI   8 111
M  ZZM   9 1
M  ZZI   9 111
M  ZZM  10 1
M  ZZI  10 111
M  ZZM  11 3
M  ZZI  11 121
M  ZZM  12 7
M  ZZI  12 81
M  ZZM  13 10
M  ZZI  13 192
M  ZZM  14 1
M  ZZI  14 113
M  ZZM  15 3
M  ZZI  15 121
M  ZZM  16 7
M  ZZI  16 81
M  ZZM  17 10
M  ZZI  17 211
M  ZZM  18 1
M  ZZI  18 112
M  ZZM  19 37
M  ZZI  19 124
M  ZZM  20 37
M  ZZI  20 124
M  ZZM  21 6
M  ZZI  21 62
M  ZZM  22 37
M  ZZI  22 125
M  ZZM  23 37
M  ZZI  23 124
M  ZZM  24 63
M  ZZI  24 104
M  ZZM  25 64
M  ZZI  25 105
M  ZZM  26 1
M  ZZI  26 111
M  ZZM  27 66
M  ZZI  27 222
M  ZZM  28 63
M  ZZI  28 104
M  ZZM  29 44
M  ZZI  29 248
M  ZZM  30 37
M  ZZI  30 125
M  ZZM  31 37
M  ZZI  31 125
M  ZZM  32 1
M  ZZI  32 112
M  ZZM  33 1
M  ZZI  33 113
M  ZZM  34 6
M  ZZI  34 60
M  ZZM  35 1
M  ZZI  35 112
M  ZZM  36 22
M  ZZI  36 109
M  ZZM  37 22
M  ZZI  37 109
M  ZZM  38 28
M  ZZI  38 11
M  ZZM  39 5
M  ZZI  39 1
M  ZZM  40 5
M  ZZI  40 1
M  ZZM  41 5
M  ZZI  41 1
M  ZZM  42 5
M  ZZI  42 1
M  ZZM  43 5
M  ZZI  43 1
M  ZZM  44 5
M  ZZI  44 1
M  ZZM  45 5
M  ZZI  45 1
M  ZZM  46 5
M  ZZI  46 1
M  ZZM  47 5
M  ZZI  47 1
M  ZZM  48 5
M  ZZI  48 1
M  ZZM  49 5
M  ZZI  49 1
M  ZZM  50 28
M  ZZI  50 11
M  ZZM  51 5
M  ZZI  51 1
M  ZZM  52 5
M  ZZI  52 1
M  ZZM  53 29
M  ZZI  53 27
M  ZZM  54 5
M  ZZI  54 1
M  ZZM  55 5
M  ZZI  55 1
M  ZZM  56 5
M  ZZI  56 1
M  ZZM  57 5
M  ZZI  57 1
M  ZZM  58 5
M  ZZI  58 1
M  ZZM  59 5
M  ZZI  59 1
M  ZZM  60 5
M  ZZI  60 1
M  ZZM  61 5
M  ZZI  61 1
M  ZZM  62 5
M  ZZI  62 1
M  ZZM  63 5
M  ZZI  63 1
M  ZZM  64 21
M  ZZI  64 20
M  ZZM  65 5
M  ZZI  65 1
M  ZZM  66 5
M  ZZI  66 1
M  ZZM  67 5
M  ZZI  67 1
M  ZZM  68 5
M  ZZI  68 1
M  ZZM  69 5
M  ZZI  69 1
M  ZZM  70 5
M  ZZI  70 1
M  END
> <IX>
1

> <NAME>
VHL_5F1H_9.pdb

> <Score>
-20.086138

> <Natom>
70

> <Nflex>
9

> <Hbond>
-7.101384

> <Hphob>
-6.530223

> <VwInt>
-33.433525

> <Dsolv>
20.395139

> <SolEl>
15.006813

> <Eintl>
8.480478

> <RecConf>
ND

> <projPath>
VHL_maps/

> <NAME_>
VHL_5F1H_9.pdb

$$$$
