VHL_3KRR_2.pdb
  MOLSOFT 04032206363D

 65 67  0  0  1  0  0  0  0  0999 V2000
    6.5811    0.7243  -22.0780 C   0  0  0  0  0  0  0  0  0  0  0  0
    6.1302   -0.0541  -20.8738 C   0  0  0  0  0  0  0  0  0  0  0  0
    6.2361   -1.2700  -20.8096 O   0  0  0  0  0  0  0  0  0  0  0  0
    5.6106    0.7458  -19.8761 N   0  0  0  0  0  0  0  0  0  0  0  0
    5.1230    0.1968  -18.6128 C   0  0  2  0  0  0  0  0  0  0  0  0
    3.5645    0.1651  -18.5318 C   0  0  0  0  0  0  0  0  0  0  0  0
    3.0155   -0.8344  -19.5636 C   0  0  0  0  0  0  0  0  0  0  0  0
    2.9073    1.5251  -18.8214 C   0  0  0  0  0  0  0  0  0  0  0  0
    3.1246   -0.3161  -17.1400 C   0  0  0  0  0  0  0  0  0  0  0  0
    5.7927    0.9868  -17.4705 C   0  0  0  0  0  0  0  0  0  0  0  0
    5.4538    2.1340  -17.2051 O   0  0  0  0  0  0  0  0  0  0  0  0
    6.8310    0.3592  -16.7751 N   0  0  0  0  0  0  0  0  0  0  0  0
    7.6018   -0.8375  -17.1278 C   0  0  1  0  0  0  0  0  0  0  0  0
    8.7041   -0.4700  -18.1392 C   0  0  0  0  0  0  0  0  0  0  0  0
    8.6275    0.5125  -18.8627 O   0  0  0  0  0  0  0  0  0  0  0  0
    9.7560   -1.3654  -18.2262 N   0  0  0  0  0  0  0  0  0  0  0  0
   10.8756   -1.1209  -19.1183 C   0  0  0  0  0  0  0  0  0  0  0  0
   12.1859   -1.6281  -18.5696 C   0  0  0  0  0  0  0  0  0  0  0  0
   12.9583   -2.5283  -19.2976 C   0  0  0  0  0  0  0  0  0  0  0  0
   14.1823   -2.9672  -18.8205 C   0  0  0  0  0  0  0  0  0  0  0  0
   14.6735   -2.5127  -17.6026 C   0  0  0  0  0  0  0  0  0  0  0  0
   15.9592   -2.9704  -17.0933 C   0  0  0  0  0  0  0  0  0  0  0  0
   16.2609   -3.7662  -15.9985 C   0  0  0  0  0  0  0  0  0  0  0  0
   15.2976   -4.4531  -15.1217 C   0  0  0  0  0  0  0  0  0  0  0  0
   17.6038   -3.9197  -15.7265 N   0  0  0  0  0  0  0  0  0  0  0  0
   18.3055   -3.3370  -16.6730 C   0  0  0  0  0  0  0  0  0  0  0  0
   17.4160   -2.5313  -17.8914 S   0  0  0  0  0  0  0  0  0  0  0  0
   13.9047   -1.6117  -16.8718 C   0  0  0  0  0  0  0  0  0  0  0  0
   12.6811   -1.1708  -17.3513 C   0  0  0  0  0  0  0  0  0  0  0  0
    8.1477   -1.2833  -15.7777 C   0  0  0  0  0  0  0  0  0  0  0  0
    8.4292    0.0180  -15.0558 C   0  0  2  0  0  0  0  0  0  0  0  0
    8.4277   -0.1701  -13.6412 O   0  0  0  0  0  0  0  0  0  0  0  0
    7.2716    0.8952  -15.5029 C   0  0  0  0  0  0  0  0  0  0  0  0
    5.8021    1.4281  -22.3875 H   0  0  0  0  0  0  0  0  0  0  0  0
    6.7785    0.0386  -22.9069 H   0  0  0  0  0  0  0  0  0  0  0  0
    7.4988    1.2696  -21.8388 H   0  0  0  0  0  0  0  0  0  0  0  0
    5.6104    1.7518  -19.9959 H   0  0  0  0  0  0  0  0  0  0  0  0
    5.4579   -0.8391  -18.5565 H   0  0  0  0  0  0  0  0  0  0  0  0
    3.2316   -0.5218  -20.5900 H   0  0  0  0  0  0  0  0  0  0  0  0
    1.9278   -0.9342  -19.4843 H   0  0  0  0  0  0  0  0  0  0  0  0
    3.4432   -1.8325  -19.4240 H   0  0  0  0  0  0  0  0  0  0  0  0
    1.8176    1.4665  -18.7305 H   0  0  0  0  0  0  0  0  0  0  0  0
    3.1216    1.8642  -19.8387 H   0  0  0  0  0  0  0  0  0  0  0  0
    3.2354    2.3044  -18.1313 H   0  0  0  0  0  0  0  0  0  0  0  0
    2.0355   -0.4079  -17.0729 H   0  0  0  0  0  0  0  0  0  0  0  0
    3.4342    0.3750  -16.3522 H   0  0  0  0  0  0  0  0  0  0  0  0
    3.5511   -1.2959  -16.9018 H   0  0  0  0  0  0  0  0  0  0  0  0
    6.9769   -1.6164  -17.5715 H   0  0  0  0  0  0  0  0  0  0  0  0
    9.7109   -2.2586  -17.7515 H   0  0  0  0  0  0  0  0  0  0  0  0
   10.6330   -1.6198  -20.0623 H   0  0  0  0  0  0  0  0  0  0  0  0
   10.9623   -0.0504  -19.3331 H   0  0  0  0  0  0  0  0  0  0  0  0
   12.6102   -2.8987  -20.2576 H   0  0  0  0  0  0  0  0  0  0  0  0
   14.7529   -3.6776  -19.4115 H   0  0  0  0  0  0  0  0  0  0  0  0
   15.6957   -4.5794  -14.1135 H   0  0  0  0  0  0  0  0  0  0  0  0
   15.0685   -5.4443  -15.5205 H   0  0  0  0  0  0  0  0  0  0  0  0
   14.3787   -3.8756  -15.0424 H   0  0  0  0  0  0  0  0  0  0  0  0
   19.3848   -3.3569  -16.6860 H   0  0  0  0  0  0  0  0  0  0  0  0
   14.2616   -1.2368  -15.9158 H   0  0  0  0  0  0  0  0  0  0  0  0
   12.1131   -0.4522  -16.7672 H   0  0  0  0  0  0  0  0  0  0  0  0
    7.3652   -1.8260  -15.2395 H   0  0  0  0  0  0  0  0  0  0  0  0
    9.0263   -1.9328  -15.8065 H   0  0  0  0  0  0  0  0  0  0  0  0
    9.3930    0.4364  -15.3593 H   0  0  0  0  0  0  0  0  0  0  0  0
    9.0769   -0.8673  -13.4338 H   0  0  0  0  0  0  0  0  0  0  0  0
    7.5454    1.9469  -15.6103 H   0  0  0  0  0  0  0  0  0  0  0  0
    6.4308    0.8348  -14.8054 H   0  0  0  0  0  0  0  0  0  0  0  0
  1 34  1  0  0  0  0
  1 35  1  0  0  0  0
  1 36  1  0  0  0  0
  1  2  1  0  0  0  0
  2  3  2  0  0  0  0
  2  4  1  0  0  0  0
  4 37  1  0  0  0  0
  5  4  1  0  0  0  0
  5 38  1  0  0  0  0
  5  6  1  0  0  0  0
  5 10  1  0  0  0  0
  6  7  1  0  0  0  0
  6  8  1  0  0  0  0
  6  9  1  0  0  0  0
  7 39  1  0  0  0  0
  7 40  1  0  0  0  0
  7 41  1  0  0  0  0
  8 42  1  0  0  0  0
  8 43  1  0  0  0  0
  8 44  1  0  0  0  0
  9 45  1  0  0  0  0
  9 46  1  0  0  0  0
  9 47  1  0  0  0  0
 10 11  2  0  0  0  0
 10 12  1  0  0  0  0
 12 33  1  0  0  0  0
 13 12  1  0  0  0  0
 13 30  1  0  0  0  0
 13 48  1  0  0  0  0
 13 14  1  0  0  0  0
 14 15  2  0  0  0  0
 14 16  1  0  0  0  0
 16 49  1  0  0  0  0
 16 17  1  0  0  0  0
 17 50  1  0  0  0  0
 17 51  1  0  0  0  0
 17 18  1  0  0  0  0
 18 19  1  0  0  0  0
 18 29  2  0  0  0  0
 19 52  1  0  0  0  0
 19 20  2  0  0  0  0
 20 53  1  0  0  0  0
 20 21  1  0  0  0  0
 21 28  2  0  0  0  0
 21 22  1  0  0  0  0
 22 23  2  0  0  0  0
 22 27  1  0  0  0  0
 23 24  1  0  0  0  0
 23 25  1  0  0  0  0
 24 54  1  0  0  0  0
 24 55  1  0  0  0  0
 24 56  1  0  0  0  0
 25 26  2  0  0  0  0
 26 57  1  0  0  0  0
 26 27  1  0  0  0  0
 28 58  1  0  0  0  0
 28 29  1  0  0  0  0
 29 59  1  0  0  0  0
 31 30  1  0  0  0  0
 30 60  1  0  0  0  0
 30 61  1  0  0  0  0
 31 33  1  0  0  0  0
 31 62  1  0  0  0  0
 31 32  1  0  0  0  0
 32 63  1  0  0  0  0
 33 64  1  0  0  0  0
 33 65  1  0  0  0  0
M  ZZC   1 c1
M  ZZC   2 c2
M  ZZC   3 o1
M  ZZC   4 n1
M  ZZC   5 c3
M  ZZC   6 c4
M  ZZC   7 c5
M  ZZC   8 c6
M  ZZC   9 c7
M  ZZC  10 c8
M  ZZC  11 o2
M  ZZC  12 n2
M  ZZC  13 c9
M  ZZC  14 c10
M  ZZC  15 o3
M  ZZC  16 n3
M  ZZC  17 c11
M  ZZC  18 c12
M  ZZC  19 c13
M  ZZC  20 c14
M  ZZC  21 c15
M  ZZC  22 c16
M  ZZC  23 c17
M  ZZC  24 c18
M  ZZC  25 n4
M  ZZC  26 c19
M  ZZC  27 s1
M  ZZC  28 c20
M  ZZC  29 c21
M  ZZC  30 c22
M  ZZC  31 c23
M  ZZC  32 o4
M  ZZC  33 c24
M  ZZC  34 h11
M  ZZC  35 h12
M  ZZC  36 h13
M  ZZC  37 h01
M  ZZC  38 h31
M  ZZC  39 h51
M  ZZC  40 h52
M  ZZC  41 h53
M  ZZC  42 h61
M  ZZC  43 h62
M  ZZC  44 h63
M  ZZC  45 h71
M  ZZC  46 h72
M  ZZC  47 h73
M  ZZC  48 h91
M  ZZC  49 h02
M  ZZC  50 h111
M  ZZC  51 h112
M  ZZC  52 h131
M  ZZC  53 h141
M  ZZC  54 h181
M  ZZC  55 h182
M  ZZC  56 h183
M  ZZC  57 h191
M  ZZC  58 h201
M  ZZC  59 h211
M  ZZC  60 h221
M  ZZC  61 h222
M  ZZC  62 h231
M  ZZC  63 h41
M  ZZC  64 h241
M  ZZC  65 h242
M  ZZM   1 1
M  ZZI   1 111
M  ZZM   2 3
M  ZZI   2 121
M  ZZM   3 7
M  ZZI   3 81
M  ZZM   4 10
M  ZZI   4 211
M  ZZM   5 1
M  ZZI   5 113
M  ZZM   6 1
M  ZZI   6 110
M  ZZM   7 1
M  ZZI   7 111
M  ZZM   8 1
M  ZZI   8 111
M  ZZM   9 1
M  ZZI   9 111
M  ZZM  10 3
M  ZZI  10 121
M  ZZM  11 7
M  ZZI  11 81
M  ZZM  12 10
M  ZZI  12 192
M  ZZM  13 1
M  ZZI  13 113
M  ZZM  14 3
M  ZZI  14 121
M  ZZM  15 7
M  ZZI  15 81
M  ZZM  16 10
M  ZZI  16 211
M  ZZM  17 1
M  ZZI  17 112
M  ZZM  18 37
M  ZZI  18 124
M  ZZM  19 37
M  ZZI  19 125
M  ZZM  20 37
M  ZZI  20 125
M  ZZM  21 37
M  ZZI  21 124
M  ZZM  22 63
M  ZZI  22 104
M  ZZM  23 64
M  ZZI  23 105
M  ZZM  24 1
M  ZZI  24 111
M  ZZM  25 66
M  ZZI  25 222
M  ZZM  26 63
M  ZZI  26 104
M  ZZM  27 44
M  ZZI  27 248
M  ZZM  28 37
M  ZZI  28 125
M  ZZM  29 37
M  ZZI  29 125
M  ZZM  30 1
M  ZZI  30 112
M  ZZM  31 1
M  ZZI  31 113
M  ZZM  32 6
M  ZZI  32 60
M  ZZM  33 1
M  ZZI  33 112
M  ZZM  34 5
M  ZZI  34 1
M  ZZM  35 5
M  ZZI  35 1
M  ZZM  36 5
M  ZZI  36 1
M  ZZM  37 28
M  ZZI  37 11
M  ZZM  38 5
M  ZZI  38 1
M  ZZM  39 5
M  ZZI  39 1
M  ZZM  40 5
M  ZZI  40 1
M  ZZM  41 5
M  ZZI  41 1
M  ZZM  42 5
M  ZZI  42 1
M  ZZM  43 5
M  ZZI  43 1
M  ZZM  44 5
M  ZZI  44 1
M  ZZM  45 5
M  ZZI  45 1
M  ZZM  46 5
M  ZZI  46 1
M  ZZM  47 5
M  ZZI  47 1
M  ZZM  48 5
M  ZZI  48 1
M  ZZM  49 28
M  ZZI  49 11
M  ZZM  50 5
M  ZZI  50 1
M  ZZM  51 5
M  ZZI  51 1
M  ZZM  52 5
M  ZZI  52 1
M  ZZM  53 5
M  ZZI  53 1
M  ZZM  54 5
M  ZZI  54 1
M  ZZM  55 5
M  ZZI  55 1
M  ZZM  56 5
M  ZZI  56 1
M  ZZM  57 5
M  ZZI  57 1
M  ZZM  58 5
M  ZZI  58 1
M  ZZM  59 5
M  ZZI  59 1
M  ZZM  60 5
M  ZZI  60 1
M  ZZM  61 5
M  ZZI  61 1
M  ZZM  62 5
M  ZZI  62 1
M  ZZM  63 21
M  ZZI  63 20
M  ZZM  64 5
M  ZZI  64 1
M  ZZM  65 5
M  ZZI  65 1
M  END
> <IX>
1

> <NAME>
VHL_3KRR_2.pdb

> <Score>
-15.597055

> <Natom>
65

> <Nflex>
8

> <Hbond>
-6.177432

> <Hphob>
-6.164765

> <VwInt>
-24.151356

> <Dsolv>
17.073363

> <SolEl>
9.823266

> <Eintl>
7.042032

> <RecConf>
ND

> <projPath>
VHL_maps/

> <NAME_>
VHL_3KRR_2.pdb

$$$$
