VHL_3K6P_12.pdb
  MOLSOFT 04032206363D

 61 63  0  0  1  0  0  0  0  0999 V2000
    3.4776    1.1307  -17.3151 N   0  3  0  0  0  0  0  0  0  0  0  0
    4.2992   -0.0273  -16.7859 C   0  0  1  0  0  0  0  0  0  0  0  0
    3.7060   -1.3833  -17.2928 C   0  0  0  0  0  0  0  0  0  0  0  0
    2.2508   -1.5416  -16.8161 C   0  0  0  0  0  0  0  0  0  0  0  0
    3.7171   -1.4897  -18.8286 C   0  0  0  0  0  0  0  0  0  0  0  0
    4.4976   -2.5753  -16.7300 C   0  0  0  0  0  0  0  0  0  0  0  0
    5.7722    0.1913  -17.1767 C   0  0  0  0  0  0  0  0  0  0  0  0
    6.0492    0.6203  -18.2888 O   0  0  0  0  0  0  0  0  0  0  0  0
    6.7602   -0.0808  -16.2278 N   0  0  0  0  0  0  0  0  0  0  0  0
    8.1693    0.1518  -16.5308 C   0  0  2  0  0  0  0  0  0  0  0  0
    8.8300   -0.9477  -17.3683 C   0  0  0  0  0  0  0  0  0  0  0  0
    8.3706   -2.0763  -17.4731 O   0  0  0  0  0  0  0  0  0  0  0  0
   10.0092   -0.5300  -17.9640 N   0  0  0  0  0  0  0  0  0  0  0  0
   10.7739   -1.3452  -18.8870 C   0  0  0  0  0  0  0  0  0  0  0  0
   12.1528   -1.7230  -18.3985 C   0  0  0  0  0  0  0  0  0  0  0  0
   12.6931   -1.2657  -17.1974 C   0  0  0  0  0  0  0  0  0  0  0  0
   13.9587   -1.6557  -16.7946 C   0  0  0  0  0  0  0  0  0  0  0  0
   14.7271   -2.5056  -17.5814 C   0  0  0  0  0  0  0  0  0  0  0  0
   16.0250   -2.9609  -17.1102 C   0  0  0  0  0  0  0  0  0  0  0  0
   16.3305   -3.7949  -16.0484 C   0  0  0  0  0  0  0  0  0  0  0  0
   15.3565   -4.5139  -15.2102 C   0  0  0  0  0  0  0  0  0  0  0  0
   17.6732   -3.9404  -15.7738 N   0  0  0  0  0  0  0  0  0  0  0  0
   18.3696   -3.3237  -16.7030 C   0  0  0  0  0  0  0  0  0  0  0  0
   17.4742   -2.4887  -17.8990 S   0  0  0  0  0  0  0  0  0  0  0  0
   14.2075   -2.9415  -18.7923 C   0  0  0  0  0  0  0  0  0  0  0  0
   12.9409   -2.5516  -19.1927 C   0  0  0  0  0  0  0  0  0  0  0  0
    8.8415    0.2719  -15.1721 C   0  0  0  0  0  0  0  0  0  0  0  0
    7.9985   -0.6305  -14.3070 C   0  0  1  0  0  0  0  0  0  0  0  0
    8.1448   -0.2911  -12.9332 O   0  0  0  0  0  0  0  0  0  0  0  0
    6.5882   -0.4062  -14.8231 C   0  0  0  0  0  0  0  0  0  0  0  0
    3.8331    2.0330  -16.9735 H   0  0  0  0  0  0  0  0  0  0  0  0
    2.4986    1.1021  -17.0059 H   0  0  0  0  0  0  0  0  0  0  0  0
    3.4941    1.1872  -18.3420 H   0  0  0  0  0  0  0  0  0  0  0  0
    4.1984    0.0435  -15.6987 H   0  0  0  0  0  0  0  0  0  0  0  0
    1.8452   -2.5200  -17.0933 H   0  0  0  0  0  0  0  0  0  0  0  0
    1.5832   -0.7926  -17.2518 H   0  0  0  0  0  0  0  0  0  0  0  0
    2.1767   -1.4630  -15.7271 H   0  0  0  0  0  0  0  0  0  0  0  0
    3.3075   -2.4404  -19.1822 H   0  0  0  0  0  0  0  0  0  0  0  0
    4.7371   -1.4228  -19.2210 H   0  0  0  0  0  0  0  0  0  0  0  0
    3.1464   -0.6835  -19.2984 H   0  0  0  0  0  0  0  0  0  0  0  0
    5.5489   -2.5360  -17.0335 H   0  0  0  0  0  0  0  0  0  0  0  0
    4.1020   -3.5269  -17.0950 H   0  0  0  0  0  0  0  0  0  0  0  0
    4.4890   -2.5986  -15.6367 H   0  0  0  0  0  0  0  0  0  0  0  0
    8.2424    1.0790  -17.0979 H   0  0  0  0  0  0  0  0  0  0  0  0
   10.3721    0.3966  -17.7638 H   0  0  0  0  0  0  0  0  0  0  0  0
   10.2058   -2.2523  -19.1181 H   0  0  0  0  0  0  0  0  0  0  0  0
   10.8691   -0.7583  -19.8064 H   0  0  0  0  0  0  0  0  0  0  0  0
   12.1298   -0.6073  -16.5454 H   0  0  0  0  0  0  0  0  0  0  0  0
   14.3402   -1.2976  -15.8417 H   0  0  0  0  0  0  0  0  0  0  0  0
   15.8455   -5.0509  -14.3977 H   0  0  0  0  0  0  0  0  0  0  0  0
   14.8154   -5.2450  -15.8139 H   0  0  0  0  0  0  0  0  0  0  0  0
   14.6479   -3.8124  -14.7704 H   0  0  0  0  0  0  0  0  0  0  0  0
   19.4490   -3.3324  -16.7147 H   0  0  0  0  0  0  0  0  0  0  0  0
   14.7790   -3.6121  -19.4271 H   0  0  0  0  0  0  0  0  0  0  0  0
   12.5597   -2.9176  -20.1419 H   0  0  0  0  0  0  0  0  0  0  0  0
    9.8951   -0.0258  -15.1588 H   0  0  0  0  0  0  0  0  0  0  0  0
    8.7883    1.2971  -14.7945 H   0  0  0  0  0  0  0  0  0  0  0  0
    8.2934   -1.6675  -14.4612 H   0  0  0  0  0  0  0  0  0  0  0  0
    8.9716   -0.7129  -12.6332 H   0  0  0  0  0  0  0  0  0  0  0  0
    6.0863    0.4225  -14.3162 H   0  0  0  0  0  0  0  0  0  0  0  0
    5.9636   -1.2913  -14.6994 H   0  0  0  0  0  0  0  0  0  0  0  0
  1 31  1  0  0  0  0
  1 32  1  0  0  0  0
  1 33  1  0  0  0  0
  2  1  1  0  0  0  0
  2 34  1  0  0  0  0
  2  3  1  0  0  0  0
  2  7  1  0  0  0  0
  3  4  1  0  0  0  0
  3  5  1  0  0  0  0
  3  6  1  0  0  0  0
  4 35  1  0  0  0  0
  4 36  1  0  0  0  0
  4 37  1  0  0  0  0
  5 38  1  0  0  0  0
  5 39  1  0  0  0  0
  5 40  1  0  0  0  0
  6 41  1  0  0  0  0
  6 42  1  0  0  0  0
  6 43  1  0  0  0  0
  7  8  2  0  0  0  0
  7  9  1  0  0  0  0
  9 30  1  0  0  0  0
 10  9  1  0  0  0  0
 10 27  1  0  0  0  0
 10 44  1  0  0  0  0
 10 11  1  0  0  0  0
 11 12  2  0  0  0  0
 11 13  1  0  0  0  0
 13 45  1  0  0  0  0
 13 14  1  0  0  0  0
 14 46  1  0  0  0  0
 14 47  1  0  0  0  0
 14 15  1  0  0  0  0
 15 16  1  0  0  0  0
 15 26  2  0  0  0  0
 16 48  1  0  0  0  0
 16 17  2  0  0  0  0
 17 49  1  0  0  0  0
 17 18  1  0  0  0  0
 18 25  2  0  0  0  0
 18 19  1  0  0  0  0
 19 20  2  0  0  0  0
 19 24  1  0  0  0  0
 20 21  1  0  0  0  0
 20 22  1  0  0  0  0
 21 50  1  0  0  0  0
 21 51  1  0  0  0  0
 21 52  1  0  0  0  0
 22 23  2  0  0  0  0
 23 53  1  0  0  0  0
 23 24  1  0  0  0  0
 25 54  1  0  0  0  0
 25 26  1  0  0  0  0
 26 55  1  0  0  0  0
 28 27  1  0  0  0  0
 27 56  1  0  0  0  0
 27 57  1  0  0  0  0
 28 30  1  0  0  0  0
 28 58  1  0  0  0  0
 28 29  1  0  0  0  0
 29 59  1  0  0  0  0
 30 60  1  0  0  0  0
 30 61  1  0  0  0  0
M  ZZC   1 n1
M  ZZC   2 c1
M  ZZC   3 c2
M  ZZC   4 c3
M  ZZC   5 c4
M  ZZC   6 c5
M  ZZC   7 c6
M  ZZC   8 o1
M  ZZC   9 n2
M  ZZC  10 c7
M  ZZC  11 c8
M  ZZC  12 o2
M  ZZC  13 n3
M  ZZC  14 c9
M  ZZC  15 c10
M  ZZC  16 c11
M  ZZC  17 c12
M  ZZC  18 c13
M  ZZC  19 c14
M  ZZC  20 c15
M  ZZC  21 c16
M  ZZC  22 n4
M  ZZC  23 c17
M  ZZC  24 s1
M  ZZC  25 c18
M  ZZC  26 c19
M  ZZC  27 c20
M  ZZC  28 c21
M  ZZC  29 o3
M  ZZC  30 c22
M  ZZC  31 h11
M  ZZC  32 h12
M  ZZC  33 h13
M  ZZC  34 h01
M  ZZC  35 h31
M  ZZC  36 h32
M  ZZC  37 h33
M  ZZC  38 h41
M  ZZC  39 h42
M  ZZC  40 h43
M  ZZC  41 h51
M  ZZC  42 h52
M  ZZC  43 h53
M  ZZC  44 h71
M  ZZC  45 h02
M  ZZC  46 h91
M  ZZC  47 h92
M  ZZC  48 h111
M  ZZC  49 h121
M  ZZC  50 h161
M  ZZC  51 h162
M  ZZC  52 h163
M  ZZC  53 h171
M  ZZC  54 h181
M  ZZC  55 h191
M  ZZC  56 h201
M  ZZC  57 h202
M  ZZC  58 h211
M  ZZC  59 h03
M  ZZC  60 h221
M  ZZC  61 h222
M  ZZM   1 34
M  ZZI   1 231
M  ZZM   2 1
M  ZZI   2 113
M  ZZM   3 1
M  ZZI   3 110
M  ZZM   4 1
M  ZZI   4 111
M  ZZM   5 1
M  ZZI   5 111
M  ZZM   6 1
M  ZZI   6 111
M  ZZM   7 3
M  ZZI   7 121
M  ZZM   8 7
M  ZZI   8 81
M  ZZM   9 10
M  ZZI   9 192
M  ZZM  10 1
M  ZZI  10 113
M  ZZM  11 3
M  ZZI  11 121
M  ZZM  12 7
M  ZZI  12 81
M  ZZM  13 10
M  ZZI  13 211
M  ZZM  14 1
M  ZZI  14 112
M  ZZM  15 37
M  ZZI  15 124
M  ZZM  16 37
M  ZZI  16 125
M  ZZM  17 37
M  ZZI  17 125
M  ZZM  18 37
M  ZZI  18 124
M  ZZM  19 63
M  ZZI  19 104
M  ZZM  20 64
M  ZZI  20 105
M  ZZM  21 1
M  ZZI  21 111
M  ZZM  22 66
M  ZZI  22 222
M  ZZM  23 63
M  ZZI  23 104
M  ZZM  24 44
M  ZZI  24 248
M  ZZM  25 37
M  ZZI  25 125
M  ZZM  26 37
M  ZZI  26 125
M  ZZM  27 1
M  ZZI  27 112
M  ZZM  28 1
M  ZZI  28 113
M  ZZM  29 6
M  ZZI  29 60
M  ZZM  30 1
M  ZZI  30 112
M  ZZM  31 36
M  ZZI  31 17
M  ZZM  32 36
M  ZZI  32 17
M  ZZM  33 36
M  ZZI  33 17
M  ZZM  34 5
M  ZZI  34 1
M  ZZM  35 5
M  ZZI  35 1
M  ZZM  36 5
M  ZZI  36 1
M  ZZM  37 5
M  ZZI  37 1
M  ZZM  38 5
M  ZZI  38 1
M  ZZM  39 5
M  ZZI  39 1
M  ZZM  40 5
M  ZZI  40 1
M  ZZM  41 5
M  ZZI  41 1
M  ZZM  42 5
M  ZZI  42 1
M  ZZM  43 5
M  ZZI  43 1
M  ZZM  44 5
M  ZZI  44 1
M  ZZM  45 28
M  ZZI  45 11
M  ZZM  46 5
M  ZZI  46 1
M  ZZM  47 5
M  ZZI  47 1
M  ZZM  48 5
M  ZZI  48 1
M  ZZM  49 5
M  ZZI  49 1
M  ZZM  50 5
M  ZZI  50 1
M  ZZM  51 5
M  ZZI  51 1
M  ZZM  52 5
M  ZZI  52 1
M  ZZM  53 5
M  ZZI  53 1
M  ZZM  54 5
M  ZZI  54 1
M  ZZM  55 5
M  ZZI  55 1
M  ZZM  56 5
M  ZZI  56 1
M  ZZM  57 5
M  ZZI  57 1
M  ZZM  58 5
M  ZZI  58 1
M  ZZM  59 21
M  ZZI  59 20
M  ZZM  60 5
M  ZZI  60 1
M  ZZM  61 5
M  ZZI  61 1
M  CHG  1   1   1
M  END
> <IX>
1

> <NAME>
VHL_3K6P_12.pdb

> <Score>
-7.354529

> <Natom>
61

> <Nflex>
7

> <Hbond>
-5.304212

> <Hphob>
-5.552772

> <VwInt>
-19.704117

> <Dsolv>
18.443115

> <SolEl>
12.495581

> <Eintl>
5.350303

> <RecConf>
ND

> <projPath>
VHL_maps/

> <NAME_>
VHL_3K6P_12.pdb

$$$$
