VHL_5EHR_22.pdb
  MOLSOFT 04032206393D

 68 70  0  0  1  0  0  0  0  0999 V2000
   15.5702   -4.3876  -15.4708 C   0  0  0  0  0  0  0  0  0  0  0  0
   15.1488   -3.8031  -16.7881 C   0  0  0  0  0  0  0  0  0  0  0  0
   15.3280   -4.4050  -17.8362 O   0  0  0  0  0  0  0  0  0  0  0  0
   14.5944   -2.5415  -16.6901 N   0  0  0  0  0  0  0  0  0  0  0  0
   14.1330   -1.8126  -17.8762 C   0  0  2  0  0  0  0  0  0  0  0  0
   15.1371   -0.7092  -18.3324 C   0  0  0  0  0  0  0  0  0  0  0  0
   16.5205   -1.3300  -18.5886 C   0  0  0  0  0  0  0  0  0  0  0  0
   15.2893    0.4095  -17.2885 C   0  0  0  0  0  0  0  0  0  0  0  0
   14.6702   -0.0655  -19.6467 C   0  0  0  0  0  0  0  0  0  0  0  0
   12.7549   -1.2363  -17.5218 C   0  0  0  0  0  0  0  0  0  0  0  0
   12.5887   -0.6145  -16.4820 O   0  0  0  0  0  0  0  0  0  0  0  0
   11.7139   -1.4302  -18.4303 N   0  0  0  0  0  0  0  0  0  0  0  0
   10.4652   -0.6826  -18.3109 C   0  0  2  0  0  0  0  0  0  0  0  0
    9.5686   -1.0998  -17.1368 C   0  0  0  0  0  0  0  0  0  0  0  0
    9.8741   -1.9658  -16.3292 O   0  0  0  0  0  0  0  0  0  0  0  0
    8.4085   -0.3497  -17.0659 N   0  0  0  0  0  0  0  0  0  0  0  0
    7.3874   -0.5237  -16.0467 C   0  0  1  0  0  0  0  0  0  0  0  0
    7.7625    0.2216  -14.7665 C   0  0  0  0  0  0  0  0  0  0  0  0
    6.0418   -0.0871  -16.5970 C   0  0  0  0  0  0  0  0  0  0  0  0
    5.8045    1.2235  -17.0170 C   0  0  0  0  0  0  0  0  0  0  0  0
    4.6075    1.5790  -17.6178 C   0  0  0  0  0  0  0  0  0  0  0  0
    3.6044    0.6373  -17.8052 C   0  0  0  0  0  0  0  0  0  0  0  0
    2.3707    0.9898  -18.4900 C   0  0  0  0  0  0  0  0  0  0  0  0
    2.0633    0.9893  -19.8432 C   0  0  0  0  0  0  0  0  0  0  0  0
    2.9736    0.6324  -20.9552 C   0  0  0  0  0  0  0  0  0  0  0  0
    0.7667    1.3605  -20.1466 N   0  0  0  0  0  0  0  0  0  0  0  0
    0.1266    1.6744  -19.0422 C   0  0  0  0  0  0  0  0  0  0  0  0
    1.0022    1.4984  -17.5880 S   0  0  0  0  0  0  0  0  0  0  0  0
    3.8159   -0.6587  -17.3508 C   0  0  0  0  0  0  0  0  0  0  0  0
    5.0166   -1.0158  -16.7580 C   0  0  0  0  0  0  0  0  0  0  0  0
    9.7728   -0.8901  -19.6568 C   0  0  0  0  0  0  0  0  0  0  0  0
   10.2992   -2.2330  -20.1252 C   0  0  1  0  0  0  0  0  0  0  0  0
   10.2105   -2.3572  -21.5430 O   0  0  0  0  0  0  0  0  0  0  0  0
   11.7420   -2.2075  -19.6569 C   0  0  0  0  0  0  0  0  0  0  0  0
   15.1514   -3.8279  -14.6317 H   0  0  0  0  0  0  0  0  0  0  0  0
   16.6608   -4.3633  -15.4105 H   0  0  0  0  0  0  0  0  0  0  0  0
   15.2263   -5.4232  -15.4040 H   0  0  0  0  0  0  0  0  0  0  0  0
   14.4703   -2.1105  -15.7742 H   0  0  0  0  0  0  0  0  0  0  0  0
   14.0292   -2.5436  -18.6812 H   0  0  0  0  0  0  0  0  0  0  0  0
   16.9646   -1.7347  -17.6745 H   0  0  0  0  0  0  0  0  0  0  0  0
   17.2251   -0.5900  -18.9819 H   0  0  0  0  0  0  0  0  0  0  0  0
   16.4651   -2.1432  -19.3193 H   0  0  0  0  0  0  0  0  0  0  0  0
   14.3901    1.0261  -17.2222 H   0  0  0  0  0  0  0  0  0  0  0  0
   16.1081    1.0881  -17.5477 H   0  0  0  0  0  0  0  0  0  0  0  0
   15.4937    0.0126  -16.2898 H   0  0  0  0  0  0  0  0  0  0  0  0
   15.3730    0.7008  -19.9879 H   0  0  0  0  0  0  0  0  0  0  0  0
   13.6964    0.4209  -19.5279 H   0  0  0  0  0  0  0  0  0  0  0  0
   14.5610   -0.8023  -20.4485 H   0  0  0  0  0  0  0  0  0  0  0  0
   10.7117    0.3734  -18.1737 H   0  0  0  0  0  0  0  0  0  0  0  0
    8.2673    0.3889  -17.7443 H   0  0  0  0  0  0  0  0  0  0  0  0
    7.3517   -1.5922  -15.8076 H   0  0  0  0  0  0  0  0  0  0  0  0
    8.7071   -0.1496  -14.3561 H   0  0  0  0  0  0  0  0  0  0  0  0
    6.9920    0.1030  -13.9980 H   0  0  0  0  0  0  0  0  0  0  0  0
    7.8939    1.2920  -14.9484 H   0  0  0  0  0  0  0  0  0  0  0  0
    6.5718    1.9826  -16.9031 H   0  0  0  0  0  0  0  0  0  0  0  0
    4.4598    2.6022  -17.9508 H   0  0  0  0  0  0  0  0  0  0  0  0
    3.7945    1.3514  -21.0279 H   0  0  0  0  0  0  0  0  0  0  0  0
    2.4449    0.6303  -21.9129 H   0  0  0  0  0  0  0  0  0  0  0  0
    3.3990   -0.3642  -20.8068 H   0  0  0  0  0  0  0  0  0  0  0  0
   -0.8977    2.0183  -19.0432 H   0  0  0  0  0  0  0  0  0  0  0  0
    3.0454   -1.4136  -17.4776 H   0  0  0  0  0  0  0  0  0  0  0  0
    5.1560   -2.0460  -16.4417 H   0  0  0  0  0  0  0  0  0  0  0  0
    8.6788   -0.8794  -19.6220 H   0  0  0  0  0  0  0  0  0  0  0  0
   10.0700   -0.1053  -20.3627 H   0  0  0  0  0  0  0  0  0  0  0  0
    9.7517   -3.0574  -19.6534 H   0  0  0  0  0  0  0  0  0  0  0  0
    9.2665   -2.3449  -21.7802 H   0  0  0  0  0  0  0  0  0  0  0  0
   12.3902   -1.7070  -20.3828 H   0  0  0  0  0  0  0  0  0  0  0  0
   12.1444   -3.2108  -19.4929 H   0  0  0  0  0  0  0  0  0  0  0  0
  1 35  1  0  0  0  0
  1 36  1  0  0  0  0
  1 37  1  0  0  0  0
  1  2  1  0  0  0  0
  2  3  2  0  0  0  0
  2  4  1  0  0  0  0
  4 38  1  0  0  0  0
  5  4  1  0  0  0  0
  5 39  1  0  0  0  0
  5  6  1  0  0  0  0
  5 10  1  0  0  0  0
  6  7  1  0  0  0  0
  6  8  1  0  0  0  0
  6  9  1  0  0  0  0
  7 40  1  0  0  0  0
  7 41  1  0  0  0  0
  7 42  1  0  0  0  0
  8 43  1  0  0  0  0
  8 44  1  0  0  0  0
  8 45  1  0  0  0  0
  9 46  1  0  0  0  0
  9 47  1  0  0  0  0
  9 48  1  0  0  0  0
 10 11  2  0  0  0  0
 10 12  1  0  0  0  0
 12 34  1  0  0  0  0
 13 12  1  0  0  0  0
 13 31  1  0  0  0  0
 13 49  1  0  0  0  0
 13 14  1  0  0  0  0
 14 15  2  0  0  0  0
 14 16  1  0  0  0  0
 16 50  1  0  0  0  0
 17 16  1  0  0  0  0
 17 51  1  0  0  0  0
 17 18  1  0  0  0  0
 17 19  1  0  0  0  0
 18 52  1  0  0  0  0
 18 53  1  0  0  0  0
 18 54  1  0  0  0  0
 19 20  1  0  0  0  0
 19 30  2  0  0  0  0
 20 55  1  0  0  0  0
 20 21  2  0  0  0  0
 21 56  1  0  0  0  0
 21 22  1  0  0  0  0
 22 29  2  0  0  0  0
 22 23  1  0  0  0  0
 23 24  2  0  0  0  0
 23 28  1  0  0  0  0
 24 25  1  0  0  0  0
 24 26  1  0  0  0  0
 25 57  1  0  0  0  0
 25 58  1  0  0  0  0
 25 59  1  0  0  0  0
 26 27  2  0  0  0  0
 27 60  1  0  0  0  0
 27 28  1  0  0  0  0
 29 61  1  0  0  0  0
 29 30  1  0  0  0  0
 30 62  1  0  0  0  0
 32 31  1  0  0  0  0
 31 63  1  0  0  0  0
 31 64  1  0  0  0  0
 32 34  1  0  0  0  0
 32 65  1  0  0  0  0
 32 33  1  0  0  0  0
 33 66  1  0  0  0  0
 34 67  1  0  0  0  0
 34 68  1  0  0  0  0
M  ZZC   1 c1
M  ZZC   2 c2
M  ZZC   3 o1
M  ZZC   4 n1
M  ZZC   5 c3
M  ZZC   6 c4
M  ZZC   7 c5
M  ZZC   8 c6
M  ZZC   9 c7
M  ZZC  10 c8
M  ZZC  11 o2
M  ZZC  12 n2
M  ZZC  13 c9
M  ZZC  14 c10
M  ZZC  15 o3
M  ZZC  16 n3
M  ZZC  17 c11
M  ZZC  18 c12
M  ZZC  19 c13
M  ZZC  20 c14
M  ZZC  21 c15
M  ZZC  22 c16
M  ZZC  23 c17
M  ZZC  24 c18
M  ZZC  25 c19
M  ZZC  26 n4
M  ZZC  27 c20
M  ZZC  28 s1
M  ZZC  29 c21
M  ZZC  30 c22
M  ZZC  31 c23
M  ZZC  32 c24
M  ZZC  33 o4
M  ZZC  34 c25
M  ZZC  35 h11
M  ZZC  36 h12
M  ZZC  37 h13
M  ZZC  38 h01
M  ZZC  39 h31
M  ZZC  40 h51
M  ZZC  41 h52
M  ZZC  42 h53
M  ZZC  43 h61
M  ZZC  44 h62
M  ZZC  45 h63
M  ZZC  46 h71
M  ZZC  47 h72
M  ZZC  48 h73
M  ZZC  49 h91
M  ZZC  50 h02
M  ZZC  51 h111
M  ZZC  52 h121
M  ZZC  53 h122
M  ZZC  54 h123
M  ZZC  55 h141
M  ZZC  56 h151
M  ZZC  57 h191
M  ZZC  58 h192
M  ZZC  59 h193
M  ZZC  60 h201
M  ZZC  61 h211
M  ZZC  62 h221
M  ZZC  63 h231
M  ZZC  64 h232
M  ZZC  65 h241
M  ZZC  66 h41
M  ZZC  67 h251
M  ZZC  68 h252
M  ZZM   1 1
M  ZZI   1 111
M  ZZM   2 3
M  ZZI   2 121
M  ZZM   3 7
M  ZZI   3 81
M  ZZM   4 10
M  ZZI   4 211
M  ZZM   5 1
M  ZZI   5 113
M  ZZM   6 1
M  ZZI   6 110
M  ZZM   7 1
M  ZZI   7 111
M  ZZM   8 1
M  ZZI   8 111
M  ZZM   9 1
M  ZZI   9 111
M  ZZM  10 3
M  ZZI  10 121
M  ZZM  11 7
M  ZZI  11 81
M  ZZM  12 10
M  ZZI  12 192
M  ZZM  13 1
M  ZZI  13 113
M  ZZM  14 3
M  ZZI  14 121
M  ZZM  15 7
M  ZZI  15 81
M  ZZM  16 10
M  ZZI  16 211
M  ZZM  17 1
M  ZZI  17 113
M  ZZM  18 1
M  ZZI  18 111
M  ZZM  19 37
M  ZZI  19 124
M  ZZM  20 37
M  ZZI  20 125
M  ZZM  21 37
M  ZZI  21 125
M  ZZM  22 37
M  ZZI  22 124
M  ZZM  23 63
M  ZZI  23 104
M  ZZM  24 64
M  ZZI  24 105
M  ZZM  25 1
M  ZZI  25 111
M  ZZM  26 66
M  ZZI  26 222
M  ZZM  27 63
M  ZZI  27 104
M  ZZM  28 44
M  ZZI  28 248
M  ZZM  29 37
M  ZZI  29 125
M  ZZM  30 37
M  ZZI  30 125
M  ZZM  31 1
M  ZZI  31 112
M  ZZM  32 1
M  ZZI  32 113
M  ZZM  33 6
M  ZZI  33 60
M  ZZM  34 1
M  ZZI  34 112
M  ZZM  35 5
M  ZZI  35 1
M  ZZM  36 5
M  ZZI  36 1
M  ZZM  37 5
M  ZZI  37 1
M  ZZM  38 28
M  ZZI  38 11
M  ZZM  39 5
M  ZZI  39 1
M  ZZM  40 5
M  ZZI  40 1
M  ZZM  41 5
M  ZZI  41 1
M  ZZM  42 5
M  ZZI  42 1
M  ZZM  43 5
M  ZZI  43 1
M  ZZM  44 5
M  ZZI  44 1
M  ZZM  45 5
M  ZZI  45 1
M  ZZM  46 5
M  ZZI  46 1
M  ZZM  47 5
M  ZZI  47 1
M  ZZM  48 5
M  ZZI  48 1
M  ZZM  49 5
M  ZZI  49 1
M  ZZM  50 28
M  ZZI  50 11
M  ZZM  51 5
M  ZZI  51 1
M  ZZM  52 5
M  ZZI  52 1
M  ZZM  53 5
M  ZZI  53 1
M  ZZM  54 5
M  ZZI  54 1
M  ZZM  55 5
M  ZZI  55 1
M  ZZM  56 5
M  ZZI  56 1
M  ZZM  57 5
M  ZZI  57 1
M  ZZM  58 5
M  ZZI  58 1
M  ZZM  59 5
M  ZZI  59 1
M  ZZM  60 5
M  ZZI  60 1
M  ZZM  61 5
M  ZZI  61 1
M  ZZM  62 5
M  ZZI  62 1
M  ZZM  63 5
M  ZZI  63 1
M  ZZM  64 5
M  ZZI  64 1
M  ZZM  65 5
M  ZZI  65 1
M  ZZM  66 21
M  ZZI  66 20
M  ZZM  67 5
M  ZZI  67 1
M  ZZM  68 5
M  ZZI  68 1
M  END
> <IX>
1

> <NAME>
VHL_5EHR_22.pdb

> <Score>
-16.941638

> <Natom>
68

> <Nflex>
8

> <Hbond>
-4.012592

> <Hphob>
-6.438318

> <VwInt>
-30.542343

> <Dsolv>
15.51527

> <SolEl>
12.006378

> <Eintl>
6.175955

> <RecConf>
ND

> <projPath>
VHL_maps/

> <NAME_>
VHL_5EHR_22.pdb

$$$$
