VHL_5G0J_12.pdb
  MOLSOFT 04032206413D

 65 67  0  0  1  0  0  0  0  0999 V2000
   18.4052   -6.9374   -5.3583 C   0  0  0  0  0  0  0  0  0  0  0  0
   17.2200   -6.0121   -5.3031 C   0  0  0  0  0  0  0  0  0  0  0  0
   16.1193   -6.3838   -5.6776 O   0  0  0  0  0  0  0  0  0  0  0  0
   17.5089   -4.7640   -4.7840 N   0  0  0  0  0  0  0  0  0  0  0  0
   16.5290   -3.6788   -4.6704 C   0  0  1  0  0  0  0  0  0  0  0  0
   15.8990   -3.5571   -3.2445 C   0  0  0  0  0  0  0  0  0  0  0  0
   15.4263   -4.9273   -2.7338 C   0  0  0  0  0  0  0  0  0  0  0  0
   16.8924   -2.9909   -2.2175 C   0  0  0  0  0  0  0  0  0  0  0  0
   14.6671   -2.6388   -3.2817 C   0  0  0  0  0  0  0  0  0  0  0  0
   17.2182   -2.3817   -5.1371 C   0  0  0  0  0  0  0  0  0  0  0  0
   18.3677   -2.1236   -4.8111 O   0  0  0  0  0  0  0  0  0  0  0  0
   16.4749   -1.4671   -5.8846 N   0  0  0  0  0  0  0  0  0  0  0  0
   17.0310   -0.1641   -6.2302 C   0  0  2  0  0  0  0  0  0  0  0  0
   17.2017    0.8022   -5.0658 C   0  0  0  0  0  0  0  0  0  0  0  0
   16.5419    0.7493   -4.0367 O   0  0  0  0  0  0  0  0  0  0  0  0
   18.1045    1.8045   -5.3662 N   0  0  0  0  0  0  0  0  0  0  0  0
   18.2099    3.0084   -4.5761 C   0  0  0  0  0  0  0  0  0  0  0  0
   17.2704    4.0578   -5.1121 C   0  0  0  0  0  0  0  0  0  0  0  0
   17.5656    4.7415   -6.2885 C   0  0  0  0  0  0  0  0  0  0  0  0
   16.6902    5.6860   -6.7971 C   0  0  0  0  0  0  0  0  0  0  0  0
   15.4984    5.9742   -6.1408 C   0  0  0  0  0  0  0  0  0  0  0  0
   14.6152    7.0148   -6.6451 C   0  0  0  0  0  0  0  0  0  0  0  0
   13.9314    7.1309   -7.8488 C   0  0  0  0  0  0  0  0  0  0  0  0
   13.8909    6.1415   -8.9493 C   0  0  0  0  0  0  0  0  0  0  0  0
   13.2256    8.3072   -8.0060 N   0  0  0  0  0  0  0  0  0  0  0  0
   13.3740    9.0536   -6.9348 C   0  0  0  0  0  0  0  0  0  0  0  0
   14.3247    8.4063   -5.6790 S   0  0  0  0  0  0  0  0  0  0  0  0
   15.1893    5.2724   -4.9798 C   0  0  0  0  0  0  0  0  0  0  0  0
   16.0626    4.3243   -4.4745 C   0  0  0  0  0  0  0  0  0  0  0  0
   16.0410    0.4501   -7.2140 C   0  0  0  0  0  0  0  0  0  0  0  0
   15.3789   -0.7529   -7.8439 C   0  0  1  0  0  0  0  0  0  0  0  0
   16.1789   -1.2283   -8.9357 O   0  0  0  0  0  0  0  0  0  0  0  0
   15.3285   -1.7744   -6.7158 C   0  0  0  0  0  0  0  0  0  0  0  0
   19.3481   -6.3960   -5.2385 H   0  0  0  0  0  0  0  0  0  0  0  0
   18.4208   -7.4406   -6.3288 H   0  0  0  0  0  0  0  0  0  0  0  0
   18.3100   -7.6835   -4.5660 H   0  0  0  0  0  0  0  0  0  0  0  0
   18.4588   -4.5741   -4.4873 H   0  0  0  0  0  0  0  0  0  0  0  0
   15.7470   -3.9209   -5.3762 H   0  0  0  0  0  0  0  0  0  0  0  0
   14.9345   -4.8458   -1.7595 H   0  0  0  0  0  0  0  0  0  0  0  0
   16.2555   -5.6289   -2.6099 H   0  0  0  0  0  0  0  0  0  0  0  0
   14.7062   -5.3785   -3.4190 H   0  0  0  0  0  0  0  0  0  0  0  0
   16.4689   -2.9984   -1.2078 H   0  0  0  0  0  0  0  0  0  0  0  0
   17.1663   -1.9547   -2.4371 H   0  0  0  0  0  0  0  0  0  0  0  0
   17.8133   -3.5759   -2.1846 H   0  0  0  0  0  0  0  0  0  0  0  0
   14.9374   -1.6165   -3.5654 H   0  0  0  0  0  0  0  0  0  0  0  0
   14.1805   -2.5838   -2.3028 H   0  0  0  0  0  0  0  0  0  0  0  0
   13.9216   -2.9795   -4.0049 H   0  0  0  0  0  0  0  0  0  0  0  0
   18.0048   -0.3277   -6.6938 H   0  0  0  0  0  0  0  0  0  0  0  0
   18.6432    1.7557   -6.2246 H   0  0  0  0  0  0  0  0  0  0  0  0
   17.9929    2.7827   -3.5264 H   0  0  0  0  0  0  0  0  0  0  0  0
   19.2461    3.3583   -4.6313 H   0  0  0  0  0  0  0  0  0  0  0  0
   18.4918    4.5427   -6.8199 H   0  0  0  0  0  0  0  0  0  0  0  0
   16.9585    6.2172   -7.7061 H   0  0  0  0  0  0  0  0  0  0  0  0
   14.8766    6.0222   -9.4081 H   0  0  0  0  0  0  0  0  0  0  0  0
   13.1961    6.4582   -9.7328 H   0  0  0  0  0  0  0  0  0  0  0  0
   13.5731    5.1619   -8.5813 H   0  0  0  0  0  0  0  0  0  0  0  0
   12.9267   10.0297   -6.8371 H   0  0  0  0  0  0  0  0  0  0  0  0
   14.2574    5.4607   -4.4540 H   0  0  0  0  0  0  0  0  0  0  0  0
   15.7907    3.7869   -3.5702 H   0  0  0  0  0  0  0  0  0  0  0  0
   15.2905    1.0539   -6.6901 H   0  0  0  0  0  0  0  0  0  0  0  0
   16.5425    1.0932   -7.9451 H   0  0  0  0  0  0  0  0  0  0  0  0
   14.3848   -0.5174   -8.2235 H   0  0  0  0  0  0  0  0  0  0  0  0
   17.1122   -1.1763   -8.6582 H   0  0  0  0  0  0  0  0  0  0  0  0
   15.3901   -2.7973   -7.0944 H   0  0  0  0  0  0  0  0  0  0  0  0
   14.4308   -1.6479   -6.1026 H   0  0  0  0  0  0  0  0  0  0  0  0
  1 34  1  0  0  0  0
  1 35  1  0  0  0  0
  1 36  1  0  0  0  0
  1  2  1  0  0  0  0
  2  3  2  0  0  0  0
  2  4  1  0  0  0  0
  4 37  1  0  0  0  0
  5  4  1  0  0  0  0
  5 38  1  0  0  0  0
  5  6  1  0  0  0  0
  5 10  1  0  0  0  0
  6  7  1  0  0  0  0
  6  8  1  0  0  0  0
  6  9  1  0  0  0  0
  7 39  1  0  0  0  0
  7 40  1  0  0  0  0
  7 41  1  0  0  0  0
  8 42  1  0  0  0  0
  8 43  1  0  0  0  0
  8 44  1  0  0  0  0
  9 45  1  0  0  0  0
  9 46  1  0  0  0  0
  9 47  1  0  0  0  0
 10 11  2  0  0  0  0
 10 12  1  0  0  0  0
 12 33  1  0  0  0  0
 13 12  1  0  0  0  0
 13 30  1  0  0  0  0
 13 48  1  0  0  0  0
 13 14  1  0  0  0  0
 14 15  2  0  0  0  0
 14 16  1  0  0  0  0
 16 49  1  0  0  0  0
 16 17  1  0  0  0  0
 17 50  1  0  0  0  0
 17 51  1  0  0  0  0
 17 18  1  0  0  0  0
 18 19  1  0  0  0  0
 18 29  2  0  0  0  0
 19 52  1  0  0  0  0
 19 20  2  0  0  0  0
 20 53  1  0  0  0  0
 20 21  1  0  0  0  0
 21 28  2  0  0  0  0
 21 22  1  0  0  0  0
 22 23  2  0  0  0  0
 22 27  1  0  0  0  0
 23 24  1  0  0  0  0
 23 25  1  0  0  0  0
 24 54  1  0  0  0  0
 24 55  1  0  0  0  0
 24 56  1  0  0  0  0
 25 26  2  0  0  0  0
 26 57  1  0  0  0  0
 26 27  1  0  0  0  0
 28 58  1  0  0  0  0
 28 29  1  0  0  0  0
 29 59  1  0  0  0  0
 31 30  1  0  0  0  0
 30 60  1  0  0  0  0
 30 61  1  0  0  0  0
 31 33  1  0  0  0  0
 31 62  1  0  0  0  0
 31 32  1  0  0  0  0
 32 63  1  0  0  0  0
 33 64  1  0  0  0  0
 33 65  1  0  0  0  0
M  ZZC   1 c1
M  ZZC   2 c2
M  ZZC   3 o1
M  ZZC   4 n1
M  ZZC   5 c3
M  ZZC   6 c4
M  ZZC   7 c5
M  ZZC   8 c6
M  ZZC   9 c7
M  ZZC  10 c8
M  ZZC  11 o2
M  ZZC  12 n2
M  ZZC  13 c9
M  ZZC  14 c10
M  ZZC  15 o3
M  ZZC  16 n3
M  ZZC  17 c11
M  ZZC  18 c12
M  ZZC  19 c13
M  ZZC  20 c14
M  ZZC  21 c15
M  ZZC  22 c16
M  ZZC  23 c17
M  ZZC  24 c18
M  ZZC  25 n4
M  ZZC  26 c19
M  ZZC  27 s1
M  ZZC  28 c20
M  ZZC  29 c21
M  ZZC  30 c22
M  ZZC  31 c23
M  ZZC  32 o4
M  ZZC  33 c24
M  ZZC  34 h11
M  ZZC  35 h12
M  ZZC  36 h13
M  ZZC  37 h01
M  ZZC  38 h31
M  ZZC  39 h51
M  ZZC  40 h52
M  ZZC  41 h53
M  ZZC  42 h61
M  ZZC  43 h62
M  ZZC  44 h63
M  ZZC  45 h71
M  ZZC  46 h72
M  ZZC  47 h73
M  ZZC  48 h91
M  ZZC  49 h02
M  ZZC  50 h111
M  ZZC  51 h112
M  ZZC  52 h131
M  ZZC  53 h141
M  ZZC  54 h181
M  ZZC  55 h182
M  ZZC  56 h183
M  ZZC  57 h191
M  ZZC  58 h201
M  ZZC  59 h211
M  ZZC  60 h221
M  ZZC  61 h222
M  ZZC  62 h231
M  ZZC  63 h41
M  ZZC  64 h241
M  ZZC  65 h242
M  ZZM   1 1
M  ZZI   1 111
M  ZZM   2 3
M  ZZI   2 121
M  ZZM   3 7
M  ZZI   3 81
M  ZZM   4 10
M  ZZI   4 211
M  ZZM   5 1
M  ZZI   5 113
M  ZZM   6 1
M  ZZI   6 110
M  ZZM   7 1
M  ZZI   7 111
M  ZZM   8 1
M  ZZI   8 111
M  ZZM   9 1
M  ZZI   9 111
M  ZZM  10 3
M  ZZI  10 121
M  ZZM  11 7
M  ZZI  11 81
M  ZZM  12 10
M  ZZI  12 192
M  ZZM  13 1
M  ZZI  13 113
M  ZZM  14 3
M  ZZI  14 121
M  ZZM  15 7
M  ZZI  15 81
M  ZZM  16 10
M  ZZI  16 211
M  ZZM  17 1
M  ZZI  17 112
M  ZZM  18 37
M  ZZI  18 124
M  ZZM  19 37
M  ZZI  19 125
M  ZZM  20 37
M  ZZI  20 125
M  ZZM  21 37
M  ZZI  21 124
M  ZZM  22 63
M  ZZI  22 104
M  ZZM  23 64
M  ZZI  23 105
M  ZZM  24 1
M  ZZI  24 111
M  ZZM  25 66
M  ZZI  25 222
M  ZZM  26 63
M  ZZI  26 104
M  ZZM  27 44
M  ZZI  27 248
M  ZZM  28 37
M  ZZI  28 125
M  ZZM  29 37
M  ZZI  29 125
M  ZZM  30 1
M  ZZI  30 112
M  ZZM  31 1
M  ZZI  31 113
M  ZZM  32 6
M  ZZI  32 60
M  ZZM  33 1
M  ZZI  33 112
M  ZZM  34 5
M  ZZI  34 1
M  ZZM  35 5
M  ZZI  35 1
M  ZZM  36 5
M  ZZI  36 1
M  ZZM  37 28
M  ZZI  37 11
M  ZZM  38 5
M  ZZI  38 1
M  ZZM  39 5
M  ZZI  39 1
M  ZZM  40 5
M  ZZI  40 1
M  ZZM  41 5
M  ZZI  41 1
M  ZZM  42 5
M  ZZI  42 1
M  ZZM  43 5
M  ZZI  43 1
M  ZZM  44 5
M  ZZI  44 1
M  ZZM  45 5
M  ZZI  45 1
M  ZZM  46 5
M  ZZI  46 1
M  ZZM  47 5
M  ZZI  47 1
M  ZZM  48 5
M  ZZI  48 1
M  ZZM  49 28
M  ZZI  49 11
M  ZZM  50 5
M  ZZI  50 1
M  ZZM  51 5
M  ZZI  51 1
M  ZZM  52 5
M  ZZI  52 1
M  ZZM  53 5
M  ZZI  53 1
M  ZZM  54 5
M  ZZI  54 1
M  ZZM  55 5
M  ZZI  55 1
M  ZZM  56 5
M  ZZI  56 1
M  ZZM  57 5
M  ZZI  57 1
M  ZZM  58 5
M  ZZI  58 1
M  ZZM  59 5
M  ZZI  59 1
M  ZZM  60 5
M  ZZI  60 1
M  ZZM  61 5
M  ZZI  61 1
M  ZZM  62 5
M  ZZI  62 1
M  ZZM  63 21
M  ZZI  63 20
M  ZZM  64 5
M  ZZI  64 1
M  ZZM  65 5
M  ZZI  65 1
M  END
> <IX>
1

> <NAME>
VHL_5G0J_12.pdb

> <Score>
-24.416823

> <Natom>
65

> <Nflex>
8

> <Hbond>
-7.866281

> <Hphob>
-6.476258

> <VwInt>
-30.34962

> <Dsolv>
21.152462

> <SolEl>
10.491272

> <Eintl>
4.308323

> <RecConf>
ND

> <projPath>
VHL_maps/

> <NAME_>
VHL_5G0J_12.pdb

$$$$
