VHL_4CI3_21.pdb
  MOLSOFT 04032206383D

 65 67  0  0  1  0  0  0  0  0999 V2000
   15.8226   -6.2698   -5.4768 O   0  0  0  0  0  0  0  0  0  0  0  0
   16.8993   -5.9409   -5.0096 C   0  0  0  0  0  0  0  0  0  0  0  0
   17.1346   -4.7808   -4.2979 N   0  0  0  0  0  0  0  0  0  0  0  0
   16.1363   -3.7290   -4.0420 C   0  0  1  0  0  0  0  0  0  0  0  0
   15.8589   -3.5463   -2.5209 C   0  0  0  0  0  0  0  0  0  0  0  0
   17.1063   -3.0990   -1.7460 C   0  0  0  0  0  0  0  0  0  0  0  0
   14.7541   -2.5244   -2.2309 C   0  0  0  0  0  0  0  0  0  0  0  0
   15.3675   -4.8887   -1.9723 C   0  0  0  0  0  0  0  0  0  0  0  0
   16.6835   -2.4968   -4.7847 C   0  0  0  0  0  0  0  0  0  0  0  0
   17.8861   -2.2626   -4.8081 O   0  0  0  0  0  0  0  0  0  0  0  0
   15.7744   -1.6749   -5.4541 N   0  0  0  0  0  0  0  0  0  0  0  0
   16.2420   -0.6950   -6.4182 C   0  0  2  0  0  0  0  0  0  0  0  0
   16.7120    0.5788   -5.7149 C   0  0  0  0  0  0  0  0  0  0  0  0
   16.2550    0.9477   -4.6412 O   0  0  0  0  0  0  0  0  0  0  0  0
   17.6613    1.2846   -6.4323 N   0  0  0  0  0  0  0  0  0  0  0  0
   18.2431    2.5168   -5.9352 C   0  0  0  0  0  0  0  0  0  0  0  0
   17.3667    3.7157   -6.2000 C   0  0  0  0  0  0  0  0  0  0  0  0
   17.5300    4.4842   -7.3479 C   0  0  0  0  0  0  0  0  0  0  0  0
   16.6960    5.5612   -7.6037 C   0  0  0  0  0  0  0  0  0  0  0  0
   15.6795    5.8987   -6.7161 C   0  0  0  0  0  0  0  0  0  0  0  0
   14.7861    7.0104   -6.9997 C   0  0  0  0  0  0  0  0  0  0  0  0
   13.8762    7.1831   -8.0314 C   0  0  0  0  0  0  0  0  0  0  0  0
   13.5765    6.2146   -9.1075 C   0  0  0  0  0  0  0  0  0  0  0  0
   13.1955    8.3836   -8.0164 N   0  0  0  0  0  0  0  0  0  0  0  0
   13.5811    9.0933   -6.9794 C   0  0  0  0  0  0  0  0  0  0  0  0
   14.7575    8.3843   -5.9675 S   0  0  0  0  0  0  0  0  0  0  0  0
   15.5209    5.1391   -5.5641 C   0  0  0  0  0  0  0  0  0  0  0  0
   16.3554    4.0662   -5.3102 C   0  0  0  0  0  0  0  0  0  0  0  0
   15.0368   -0.4517   -7.3143 C   0  0  0  0  0  0  0  0  0  0  0  0
   13.8445   -0.6436   -6.3880 C   0  0  1  0  0  0  0  0  0  0  0  0
   12.7142   -1.1770   -7.0746 O   0  0  0  0  0  0  0  0  0  0  0  0
   14.3268   -1.6407   -5.3476 C   0  0  0  0  0  0  0  0  0  0  0  0
   18.1115   -6.8191   -5.1526 C   0  0  0  0  0  0  0  0  0  0  0  0
   18.0922   -4.5860   -4.0287 H   0  0  0  0  0  0  0  0  0  0  0  0
   15.2086   -4.0450   -4.5177 H   0  0  0  0  0  0  0  0  0  0  0  0
   17.9322   -3.7944   -1.8737 H   0  0  0  0  0  0  0  0  0  0  0  0
   16.9073   -3.0344   -0.6714 H   0  0  0  0  0  0  0  0  0  0  0  0
   17.4542   -2.1134   -2.0705 H   0  0  0  0  0  0  0  0  0  0  0  0
   14.5122   -2.4908   -1.1634 H   0  0  0  0  0  0  0  0  0  0  0  0
   13.8275   -2.7782   -2.7548 H   0  0  0  0  0  0  0  0  0  0  0  0
   15.0580   -1.5115   -2.5082 H   0  0  0  0  0  0  0  0  0  0  0  0
   14.4795   -5.2419   -2.5064 H   0  0  0  0  0  0  0  0  0  0  0  0
   15.0990   -4.8028   -0.9178 H   0  0  0  0  0  0  0  0  0  0  0  0
   16.1290   -5.6652   -2.0633 H   0  0  0  0  0  0  0  0  0  0  0  0
   17.0773   -1.1098   -6.9896 H   0  0  0  0  0  0  0  0  0  0  0  0
   18.0447    0.8815   -7.2825 H   0  0  0  0  0  0  0  0  0  0  0  0
   18.4338    2.4147   -4.8609 H   0  0  0  0  0  0  0  0  0  0  0  0
   19.2168    2.6392   -6.4213 H   0  0  0  0  0  0  0  0  0  0  0  0
   18.3180    4.2474   -8.0560 H   0  0  0  0  0  0  0  0  0  0  0  0
   16.8486    6.1444   -8.5080 H   0  0  0  0  0  0  0  0  0  0  0  0
   14.4134    6.1442   -9.8069 H   0  0  0  0  0  0  0  0  0  0  0  0
   12.6903    6.5161   -9.6677 H   0  0  0  0  0  0  0  0  0  0  0  0
   13.3838    5.2185   -8.6978 H   0  0  0  0  0  0  0  0  0  0  0  0
   13.1821   10.0737   -6.7659 H   0  0  0  0  0  0  0  0  0  0  0  0
   14.7304    5.3696   -4.8552 H   0  0  0  0  0  0  0  0  0  0  0  0
   16.2018    3.4911   -4.4019 H   0  0  0  0  0  0  0  0  0  0  0  0
   15.0342    0.5369   -7.7853 H   0  0  0  0  0  0  0  0  0  0  0  0
   15.0110   -1.1936   -8.1204 H   0  0  0  0  0  0  0  0  0  0  0  0
   13.5534    0.3009   -5.9142 H   0  0  0  0  0  0  0  0  0  0  0  0
   12.4529   -0.5463   -7.7691 H   0  0  0  0  0  0  0  0  0  0  0  0
   13.8998   -2.6378   -5.4572 H   0  0  0  0  0  0  0  0  0  0  0  0
   14.0515   -1.2697   -4.3617 H   0  0  0  0  0  0  0  0  0  0  0  0
   18.0611   -7.4178   -6.0671 H   0  0  0  0  0  0  0  0  0  0  0  0
   18.1688   -7.4997   -4.2980 H   0  0  0  0  0  0  0  0  0  0  0  0
   19.0049   -6.1905   -5.1710 H   0  0  0  0  0  0  0  0  0  0  0  0
  1  2  2  0  0  0  0
  2  3  1  0  0  0  0
  2 33  1  0  0  0  0
  4  3  1  0  0  0  0
  3 34  1  0  0  0  0
  4  5  1  0  0  0  0
  4 35  1  0  0  0  0
  4  9  1  0  0  0  0
  5  6  1  0  0  0  0
  5  7  1  0  0  0  0
  5  8  1  0  0  0  0
  6 36  1  0  0  0  0
  6 37  1  0  0  0  0
  6 38  1  0  0  0  0
  7 39  1  0  0  0  0
  7 40  1  0  0  0  0
  7 41  1  0  0  0  0
  8 42  1  0  0  0  0
  8 43  1  0  0  0  0
  8 44  1  0  0  0  0
  9 10  2  0  0  0  0
  9 11  1  0  0  0  0
 11 32  1  0  0  0  0
 12 11  1  0  0  0  0
 12 29  1  0  0  0  0
 12 45  1  0  0  0  0
 12 13  1  0  0  0  0
 13 14  2  0  0  0  0
 13 15  1  0  0  0  0
 15 46  1  0  0  0  0
 15 16  1  0  0  0  0
 16 47  1  0  0  0  0
 16 48  1  0  0  0  0
 16 17  1  0  0  0  0
 17 18  1  0  0  0  0
 17 28  2  0  0  0  0
 18 49  1  0  0  0  0
 18 19  2  0  0  0  0
 19 50  1  0  0  0  0
 19 20  1  0  0  0  0
 20 27  2  0  0  0  0
 20 21  1  0  0  0  0
 21 22  2  0  0  0  0
 21 26  1  0  0  0  0
 22 23  1  0  0  0  0
 22 24  1  0  0  0  0
 23 51  1  0  0  0  0
 23 52  1  0  0  0  0
 23 53  1  0  0  0  0
 24 25  2  0  0  0  0
 25 54  1  0  0  0  0
 25 26  1  0  0  0  0
 27 55  1  0  0  0  0
 27 28  1  0  0  0  0
 28 56  1  0  0  0  0
 30 29  1  0  0  0  0
 29 57  1  0  0  0  0
 29 58  1  0  0  0  0
 30 32  1  0  0  0  0
 30 59  1  0  0  0  0
 30 31  1  0  0  0  0
 31 60  1  0  0  0  0
 32 61  1  0  0  0  0
 32 62  1  0  0  0  0
 33 63  1  0  0  0  0
 33 64  1  0  0  0  0
 33 65  1  0  0  0  0
M  ZZC   1 o1
M  ZZC   2 c1
M  ZZC   3 n1
M  ZZC   4 c2
M  ZZC   5 c3
M  ZZC   6 c4
M  ZZC   7 c5
M  ZZC   8 c6
M  ZZC   9 c7
M  ZZC  10 o2
M  ZZC  11 n2
M  ZZC  12 c8
M  ZZC  13 c9
M  ZZC  14 o3
M  ZZC  15 n3
M  ZZC  16 c10
M  ZZC  17 c11
M  ZZC  18 c12
M  ZZC  19 c13
M  ZZC  20 c14
M  ZZC  21 c15
M  ZZC  22 c16
M  ZZC  23 c17
M  ZZC  24 n4
M  ZZC  25 c18
M  ZZC  26 s1
M  ZZC  27 c19
M  ZZC  28 c20
M  ZZC  29 c21
M  ZZC  30 c22
M  ZZC  31 o4
M  ZZC  32 c23
M  ZZC  33 c24
M  ZZC  34 h11
M  ZZC  35 h21
M  ZZC  36 h41
M  ZZC  37 h42
M  ZZC  38 h43
M  ZZC  39 h51
M  ZZC  40 h52
M  ZZC  41 h53
M  ZZC  42 h61
M  ZZC  43 h62
M  ZZC  44 h63
M  ZZC  45 h81
M  ZZC  46 h31
M  ZZC  47 h101
M  ZZC  48 h102
M  ZZC  49 h121
M  ZZC  50 h131
M  ZZC  51 h171
M  ZZC  52 h172
M  ZZC  53 h173
M  ZZC  54 h181
M  ZZC  55 h191
M  ZZC  56 h201
M  ZZC  57 h211
M  ZZC  58 h212
M  ZZC  59 h221
M  ZZC  60 h01
M  ZZC  61 h231
M  ZZC  62 h232
M  ZZC  63 h241
M  ZZC  64 h242
M  ZZC  65 h243
M  ZZM   1 7
M  ZZI   1 81
M  ZZM   2 3
M  ZZI   2 121
M  ZZM   3 10
M  ZZI   3 211
M  ZZM   4 1
M  ZZI   4 113
M  ZZM   5 1
M  ZZI   5 110
M  ZZM   6 1
M  ZZI   6 111
M  ZZM   7 1
M  ZZI   7 111
M  ZZM   8 1
M  ZZI   8 111
M  ZZM   9 3
M  ZZI   9 121
M  ZZM  10 7
M  ZZI  10 81
M  ZZM  11 10
M  ZZI  11 192
M  ZZM  12 1
M  ZZI  12 113
M  ZZM  13 3
M  ZZI  13 121
M  ZZM  14 7
M  ZZI  14 81
M  ZZM  15 10
M  ZZI  15 211
M  ZZM  16 1
M  ZZI  16 112
M  ZZM  17 37
M  ZZI  17 124
M  ZZM  18 37
M  ZZI  18 125
M  ZZM  19 37
M  ZZI  19 125
M  ZZM  20 37
M  ZZI  20 124
M  ZZM  21 63
M  ZZI  21 104
M  ZZM  22 64
M  ZZI  22 105
M  ZZM  23 1
M  ZZI  23 111
M  ZZM  24 66
M  ZZI  24 222
M  ZZM  25 63
M  ZZI  25 104
M  ZZM  26 44
M  ZZI  26 248
M  ZZM  27 37
M  ZZI  27 125
M  ZZM  28 37
M  ZZI  28 125
M  ZZM  29 1
M  ZZI  29 112
M  ZZM  30 1
M  ZZI  30 113
M  ZZM  31 6
M  ZZI  31 60
M  ZZM  32 1
M  ZZI  32 112
M  ZZM  33 1
M  ZZI  33 111
M  ZZM  34 28
M  ZZI  34 11
M  ZZM  35 5
M  ZZI  35 1
M  ZZM  36 5
M  ZZI  36 1
M  ZZM  37 5
M  ZZI  37 1
M  ZZM  38 5
M  ZZI  38 1
M  ZZM  39 5
M  ZZI  39 1
M  ZZM  40 5
M  ZZI  40 1
M  ZZM  41 5
M  ZZI  41 1
M  ZZM  42 5
M  ZZI  42 1
M  ZZM  43 5
M  ZZI  43 1
M  ZZM  44 5
M  ZZI  44 1
M  ZZM  45 5
M  ZZI  45 1
M  ZZM  46 28
M  ZZI  46 11
M  ZZM  47 5
M  ZZI  47 1
M  ZZM  48 5
M  ZZI  48 1
M  ZZM  49 5
M  ZZI  49 1
M  ZZM  50 5
M  ZZI  50 1
M  ZZM  51 5
M  ZZI  51 1
M  ZZM  52 5
M  ZZI  52 1
M  ZZM  53 5
M  ZZI  53 1
M  ZZM  54 5
M  ZZI  54 1
M  ZZM  55 5
M  ZZI  55 1
M  ZZM  56 5
M  ZZI  56 1
M  ZZM  57 5
M  ZZI  57 1
M  ZZM  58 5
M  ZZI  58 1
M  ZZM  59 5
M  ZZI  59 1
M  ZZM  60 21
M  ZZI  60 20
M  ZZM  61 5
M  ZZI  61 1
M  ZZM  62 5
M  ZZI  62 1
M  ZZM  63 5
M  ZZI  63 1
M  ZZM  64 5
M  ZZI  64 1
M  ZZM  65 5
M  ZZI  65 1
M  END
> <IX>
1

> <NAME>
VHL_4CI3_21.pdb

> <Score>
-3.95763

> <Natom>
65

> <Nflex>
8

> <Hbond>
-4.942063

> <Hphob>
-6.603133

> <VwInt>
-27.608899

> <Dsolv>
22.313633

> <SolEl>
23.237855

> <Eintl>
6.177628

> <RecConf>
ND

> <projPath>
VHL_maps/

> <NAME_>
VHL_4CI3_21.pdb

$$$$
