VHL_4BJX_2.pdb
  MOLSOFT 04032206373D

 65 67  0  0  1  0  0  0  0  0999 V2000
   18.5492   -6.7537   -5.5017 C   0  0  0  0  0  0  0  0  0  0  0  0
   17.3206   -5.8878   -5.4195 C   0  0  0  0  0  0  0  0  0  0  0  0
   16.2236   -6.3292   -5.7249 O   0  0  0  0  0  0  0  0  0  0  0  0
   17.5687   -4.6094   -4.9529 N   0  0  0  0  0  0  0  0  0  0  0  0
   16.5372   -3.5797   -4.7852 C   0  0  1  0  0  0  0  0  0  0  0  0
   15.9152   -3.5646   -3.3477 C   0  0  0  0  0  0  0  0  0  0  0  0
   14.6204   -2.7397   -3.3351 C   0  0  0  0  0  0  0  0  0  0  0  0
   16.8845   -2.9721   -2.3139 C   0  0  0  0  0  0  0  0  0  0  0  0
   15.5420   -4.9766   -2.8699 C   0  0  0  0  0  0  0  0  0  0  0  0
   17.1709   -2.2267   -5.1774 C   0  0  0  0  0  0  0  0  0  0  0  0
   18.3045   -1.9427   -4.8197 O   0  0  0  0  0  0  0  0  0  0  0  0
   16.4065   -1.2978   -5.8913 N   0  0  0  0  0  0  0  0  0  0  0  0
   16.9288    0.0474   -6.1510 C   0  0  2  0  0  0  0  0  0  0  0  0
   16.8782    0.9684   -4.9291 C   0  0  0  0  0  0  0  0  0  0  0  0
   17.7393    1.8150   -4.7374 O   0  0  0  0  0  0  0  0  0  0  0  0
   15.7104    0.8877   -4.1919 N   0  0  0  0  0  0  0  0  0  0  0  0
   15.4041    1.7859   -3.0965 C   0  0  0  0  0  0  0  0  0  0  0  0
   15.1339    1.0395   -1.8177 C   0  0  0  0  0  0  0  0  0  0  0  0
   16.1872    0.5627   -1.0454 C   0  0  0  0  0  0  0  0  0  0  0  0
   15.9495   -0.1148    0.1383 C   0  0  0  0  0  0  0  0  0  0  0  0
   14.6507   -0.3341    0.5827 C   0  0  0  0  0  0  0  0  0  0  0  0
   14.4013   -1.0164    1.8451 C   0  0  0  0  0  0  0  0  0  0  0  0
   14.7596   -2.2841    2.2843 C   0  0  0  0  0  0  0  0  0  0  0  0
   15.5361   -3.2988    1.5403 C   0  0  0  0  0  0  0  0  0  0  0  0
   14.3117   -2.6158    3.5479 N   0  0  0  0  0  0  0  0  0  0  0  0
   13.6646   -1.5979    4.0675 C   0  0  0  0  0  0  0  0  0  0  0  0
   13.5582   -0.1974    3.0991 S   0  0  0  0  0  0  0  0  0  0  0  0
   13.5965    0.1221   -0.2018 C   0  0  0  0  0  0  0  0  0  0  0  0
   13.8334    0.8020   -1.3848 C   0  0  0  0  0  0  0  0  0  0  0  0
   16.0370    0.6232   -7.2493 C   0  0  0  0  0  0  0  0  0  0  0  0
   15.4043   -0.5912   -7.8967 C   0  0  1  0  0  0  0  0  0  0  0  0
   16.2405   -1.0882   -8.9502 O   0  0  0  0  0  0  0  0  0  0  0  0
   15.2947   -1.6059   -6.7681 C   0  0  0  0  0  0  0  0  0  0  0  0
   19.4670   -6.1618   -5.4404 H   0  0  0  0  0  0  0  0  0  0  0  0
   18.5495   -7.2867   -6.4563 H   0  0  0  0  0  0  0  0  0  0  0  0
   18.5272   -7.4781   -4.6837 H   0  0  0  0  0  0  0  0  0  0  0  0
   18.5224   -4.3614   -4.7160 H   0  0  0  0  0  0  0  0  0  0  0  0
   15.7675   -3.8207   -5.5057 H   0  0  0  0  0  0  0  0  0  0  0  0
   14.8085   -1.6904   -3.5849 H   0  0  0  0  0  0  0  0  0  0  0  0
   14.1428   -2.7595   -2.3507 H   0  0  0  0  0  0  0  0  0  0  0  0
   13.8963   -3.1094   -4.0590 H   0  0  0  0  0  0  0  0  0  0  0  0
   16.4744   -3.0339   -1.3027 H   0  0  0  0  0  0  0  0  0  0  0  0
   17.0963   -1.9170   -2.5050 H   0  0  0  0  0  0  0  0  0  0  0  0
   17.8384   -3.5034   -2.3074 H   0  0  0  0  0  0  0  0  0  0  0  0
   15.0486   -4.9530   -1.8929 H   0  0  0  0  0  0  0  0  0  0  0  0
   16.4167   -5.6232   -2.7619 H   0  0  0  0  0  0  0  0  0  0  0  0
   14.8494   -5.4574   -3.5618 H   0  0  0  0  0  0  0  0  0  0  0  0
   17.9698   -0.0373   -6.4773 H   0  0  0  0  0  0  0  0  0  0  0  0
   15.0203    0.1917   -4.4456 H   0  0  0  0  0  0  0  0  0  0  0  0
   16.2162    2.5054   -2.9485 H   0  0  0  0  0  0  0  0  0  0  0  0
   14.5218    2.3622   -3.3943 H   0  0  0  0  0  0  0  0  0  0  0  0
   17.2133    0.7230   -1.3655 H   0  0  0  0  0  0  0  0  0  0  0  0
   16.7971   -0.4567    0.7248 H   0  0  0  0  0  0  0  0  0  0  0  0
   15.0194   -3.5783    0.6188 H   0  0  0  0  0  0  0  0  0  0  0  0
   15.6617   -4.2089    2.1330 H   0  0  0  0  0  0  0  0  0  0  0  0
   16.5254   -2.9151    1.2763 H   0  0  0  0  0  0  0  0  0  0  0  0
   13.2266   -1.6347    5.0544 H   0  0  0  0  0  0  0  0  0  0  0  0
   12.5710   -0.0482    0.1100 H   0  0  0  0  0  0  0  0  0  0  0  0
   12.9880    1.1560   -1.9672 H   0  0  0  0  0  0  0  0  0  0  0  0
   15.2541    1.2673   -6.8337 H   0  0  0  0  0  0  0  0  0  0  0  0
   16.6163    1.2250   -7.9566 H   0  0  0  0  0  0  0  0  0  0  0  0
   14.4305   -0.3532   -8.3242 H   0  0  0  0  0  0  0  0  0  0  0  0
   17.1651   -1.0253   -8.6454 H   0  0  0  0  0  0  0  0  0  0  0  0
   15.3555   -2.6323   -7.1377 H   0  0  0  0  0  0  0  0  0  0  0  0
   14.3737   -1.4651   -6.1930 H   0  0  0  0  0  0  0  0  0  0  0  0
  1 34  1  0  0  0  0
  1 35  1  0  0  0  0
  1 36  1  0  0  0  0
  1  2  1  0  0  0  0
  2  3  2  0  0  0  0
  2  4  1  0  0  0  0
  4 37  1  0  0  0  0
  5  4  1  0  0  0  0
  5 38  1  0  0  0  0
  5  6  1  0  0  0  0
  5 10  1  0  0  0  0
  6  7  1  0  0  0  0
  6  8  1  0  0  0  0
  6  9  1  0  0  0  0
  7 39  1  0  0  0  0
  7 40  1  0  0  0  0
  7 41  1  0  0  0  0
  8 42  1  0  0  0  0
  8 43  1  0  0  0  0
  8 44  1  0  0  0  0
  9 45  1  0  0  0  0
  9 46  1  0  0  0  0
  9 47  1  0  0  0  0
 10 11  2  0  0  0  0
 10 12  1  0  0  0  0
 12 33  1  0  0  0  0
 13 12  1  0  0  0  0
 13 30  1  0  0  0  0
 13 48  1  0  0  0  0
 13 14  1  0  0  0  0
 14 15  2  0  0  0  0
 14 16  1  0  0  0  0
 16 49  1  0  0  0  0
 16 17  1  0  0  0  0
 17 50  1  0  0  0  0
 17 51  1  0  0  0  0
 17 18  1  0  0  0  0
 18 19  1  0  0  0  0
 18 29  2  0  0  0  0
 19 52  1  0  0  0  0
 19 20  2  0  0  0  0
 20 53  1  0  0  0  0
 20 21  1  0  0  0  0
 21 28  2  0  0  0  0
 21 22  1  0  0  0  0
 22 23  2  0  0  0  0
 22 27  1  0  0  0  0
 23 24  1  0  0  0  0
 23 25  1  0  0  0  0
 24 54  1  0  0  0  0
 24 55  1  0  0  0  0
 24 56  1  0  0  0  0
 25 26  2  0  0  0  0
 26 57  1  0  0  0  0
 26 27  1  0  0  0  0
 28 58  1  0  0  0  0
 28 29  1  0  0  0  0
 29 59  1  0  0  0  0
 31 30  1  0  0  0  0
 30 60  1  0  0  0  0
 30 61  1  0  0  0  0
 31 33  1  0  0  0  0
 31 62  1  0  0  0  0
 31 32  1  0  0  0  0
 32 63  1  0  0  0  0
 33 64  1  0  0  0  0
 33 65  1  0  0  0  0
M  ZZC   1 c1
M  ZZC   2 c2
M  ZZC   3 o1
M  ZZC   4 n1
M  ZZC   5 c3
M  ZZC   6 c4
M  ZZC   7 c5
M  ZZC   8 c6
M  ZZC   9 c7
M  ZZC  10 c8
M  ZZC  11 o2
M  ZZC  12 n2
M  ZZC  13 c9
M  ZZC  14 c10
M  ZZC  15 o3
M  ZZC  16 n3
M  ZZC  17 c11
M  ZZC  18 c12
M  ZZC  19 c13
M  ZZC  20 c14
M  ZZC  21 c15
M  ZZC  22 c16
M  ZZC  23 c17
M  ZZC  24 c18
M  ZZC  25 n4
M  ZZC  26 c19
M  ZZC  27 s1
M  ZZC  28 c20
M  ZZC  29 c21
M  ZZC  30 c22
M  ZZC  31 c23
M  ZZC  32 o4
M  ZZC  33 c24
M  ZZC  34 h11
M  ZZC  35 h12
M  ZZC  36 h13
M  ZZC  37 h01
M  ZZC  38 h31
M  ZZC  39 h51
M  ZZC  40 h52
M  ZZC  41 h53
M  ZZC  42 h61
M  ZZC  43 h62
M  ZZC  44 h63
M  ZZC  45 h71
M  ZZC  46 h72
M  ZZC  47 h73
M  ZZC  48 h91
M  ZZC  49 h02
M  ZZC  50 h111
M  ZZC  51 h112
M  ZZC  52 h131
M  ZZC  53 h141
M  ZZC  54 h181
M  ZZC  55 h182
M  ZZC  56 h183
M  ZZC  57 h191
M  ZZC  58 h201
M  ZZC  59 h211
M  ZZC  60 h221
M  ZZC  61 h222
M  ZZC  62 h231
M  ZZC  63 h41
M  ZZC  64 h241
M  ZZC  65 h242
M  ZZM   1 1
M  ZZI   1 111
M  ZZM   2 3
M  ZZI   2 121
M  ZZM   3 7
M  ZZI   3 81
M  ZZM   4 10
M  ZZI   4 211
M  ZZM   5 1
M  ZZI   5 113
M  ZZM   6 1
M  ZZI   6 110
M  ZZM   7 1
M  ZZI   7 111
M  ZZM   8 1
M  ZZI   8 111
M  ZZM   9 1
M  ZZI   9 111
M  ZZM  10 3
M  ZZI  10 121
M  ZZM  11 7
M  ZZI  11 81
M  ZZM  12 10
M  ZZI  12 192
M  ZZM  13 1
M  ZZI  13 113
M  ZZM  14 3
M  ZZI  14 121
M  ZZM  15 7
M  ZZI  15 81
M  ZZM  16 10
M  ZZI  16 211
M  ZZM  17 1
M  ZZI  17 112
M  ZZM  18 37
M  ZZI  18 124
M  ZZM  19 37
M  ZZI  19 125
M  ZZM  20 37
M  ZZI  20 125
M  ZZM  21 37
M  ZZI  21 124
M  ZZM  22 63
M  ZZI  22 104
M  ZZM  23 64
M  ZZI  23 105
M  ZZM  24 1
M  ZZI  24 111
M  ZZM  25 66
M  ZZI  25 222
M  ZZM  26 63
M  ZZI  26 104
M  ZZM  27 44
M  ZZI  27 248
M  ZZM  28 37
M  ZZI  28 125
M  ZZM  29 37
M  ZZI  29 125
M  ZZM  30 1
M  ZZI  30 112
M  ZZM  31 1
M  ZZI  31 113
M  ZZM  32 6
M  ZZI  32 60
M  ZZM  33 1
M  ZZI  33 112
M  ZZM  34 5
M  ZZI  34 1
M  ZZM  35 5
M  ZZI  35 1
M  ZZM  36 5
M  ZZI  36 1
M  ZZM  37 28
M  ZZI  37 11
M  ZZM  38 5
M  ZZI  38 1
M  ZZM  39 5
M  ZZI  39 1
M  ZZM  40 5
M  ZZI  40 1
M  ZZM  41 5
M  ZZI  41 1
M  ZZM  42 5
M  ZZI  42 1
M  ZZM  43 5
M  ZZI  43 1
M  ZZM  44 5
M  ZZI  44 1
M  ZZM  45 5
M  ZZI  45 1
M  ZZM  46 5
M  ZZI  46 1
M  ZZM  47 5
M  ZZI  47 1
M  ZZM  48 5
M  ZZI  48 1
M  ZZM  49 28
M  ZZI  49 11
M  ZZM  50 5
M  ZZI  50 1
M  ZZM  51 5
M  ZZI  51 1
M  ZZM  52 5
M  ZZI  52 1
M  ZZM  53 5
M  ZZI  53 1
M  ZZM  54 5
M  ZZI  54 1
M  ZZM  55 5
M  ZZI  55 1
M  ZZM  56 5
M  ZZI  56 1
M  ZZM  57 5
M  ZZI  57 1
M  ZZM  58 5
M  ZZI  58 1
M  ZZM  59 5
M  ZZI  59 1
M  ZZM  60 5
M  ZZI  60 1
M  ZZM  61 5
M  ZZI  61 1
M  ZZM  62 5
M  ZZI  62 1
M  ZZM  63 21
M  ZZI  63 20
M  ZZM  64 5
M  ZZI  64 1
M  ZZM  65 5
M  ZZI  65 1
M  END
> <IX>
1

> <NAME>
VHL_4BJX_2.pdb

> <Score>
-29.764096

> <Natom>
65

> <Nflex>
8

> <Hbond>
-8.061673

> <Hphob>
-6.723794

> <VwInt>
-28.055493

> <Dsolv>
15.965268

> <SolEl>
6.27505

> <Eintl>
3.794814

> <RecConf>
ND

> <projPath>
VHL_maps/

> <NAME_>
VHL_4BJX_2.pdb

$$$$
