VHL_6YOJ_3.pdb
  MOLSOFT 04032206453D

 65 67  0  0  1  0  0  0  0  0999 V2000
   18.0871   -6.8346   -5.1260 C   0  0  0  0  0  0  0  0  0  0  0  0
   16.8860   -5.9379   -5.0074 C   0  0  0  0  0  0  0  0  0  0  0  0
   15.8138   -6.2624   -5.4870 O   0  0  0  0  0  0  0  0  0  0  0  0
   17.1267   -4.7844   -4.2887 N   0  0  0  0  0  0  0  0  0  0  0  0
   16.1328   -3.7281   -4.0377 C   0  0  1  0  0  0  0  0  0  0  0  0
   15.8547   -3.5411   -2.5175 C   0  0  0  0  0  0  0  0  0  0  0  0
   17.1011   -3.0921   -1.7421 C   0  0  0  0  0  0  0  0  0  0  0  0
   15.3626   -4.8818   -1.9656 C   0  0  0  0  0  0  0  0  0  0  0  0
   14.7492   -2.5189   -2.2316 C   0  0  0  0  0  0  0  0  0  0  0  0
   16.6838   -2.4989   -4.7826 C   0  0  0  0  0  0  0  0  0  0  0  0
   17.8867   -2.2671   -4.8055 O   0  0  0  0  0  0  0  0  0  0  0  0
   15.7772   -1.6768   -5.4543 N   0  0  0  0  0  0  0  0  0  0  0  0
   16.2470   -0.6960   -6.4166 C   0  0  2  0  0  0  0  0  0  0  0  0
   16.7168    0.5771   -5.7116 C   0  0  0  0  0  0  0  0  0  0  0  0
   16.2581    0.9457   -4.6387 O   0  0  0  0  0  0  0  0  0  0  0  0
   17.6668    1.2833   -6.4270 N   0  0  0  0  0  0  0  0  0  0  0  0
   18.2451    2.5166   -5.9292 C   0  0  0  0  0  0  0  0  0  0  0  0
   17.3663    3.7130   -6.1949 C   0  0  0  0  0  0  0  0  0  0  0  0
   16.3557    4.0638   -5.3044 C   0  0  0  0  0  0  0  0  0  0  0  0
   15.5202    5.1357   -5.5590 C   0  0  0  0  0  0  0  0  0  0  0  0
   15.6766    5.8933   -6.7127 C   0  0  0  0  0  0  0  0  0  0  0  0
   14.7822    7.0041   -6.9973 C   0  0  0  0  0  0  0  0  0  0  0  0
   13.8754    7.1774   -8.0318 C   0  0  0  0  0  0  0  0  0  0  0  0
   13.5804    6.2101   -9.1104 C   0  0  0  0  0  0  0  0  0  0  0  0
   13.1934    8.3771   -8.0174 N   0  0  0  0  0  0  0  0  0  0  0  0
   13.5751    9.0861   -6.9782 C   0  0  0  0  0  0  0  0  0  0  0  0
   14.7485    8.3766   -5.9631 S   0  0  0  0  0  0  0  0  0  0  0  0
   16.6930    5.5557   -7.6004 C   0  0  0  0  0  0  0  0  0  0  0  0
   17.5291    4.4807   -7.3430 C   0  0  0  0  0  0  0  0  0  0  0  0
   15.0438   -0.4508   -7.3145 C   0  0  0  0  0  0  0  0  0  0  0  0
   13.8496   -0.6427   -6.3905 C   0  0  1  0  0  0  0  0  0  0  0  0
   12.7203   -1.1745   -7.0797 O   0  0  0  0  0  0  0  0  0  0  0  0
   14.3294   -1.6412   -5.3502 C   0  0  0  0  0  0  0  0  0  0  0  0
   19.0029   -6.2488   -5.2514 H   0  0  0  0  0  0  0  0  0  0  0  0
   17.9714   -7.4839   -5.9989 H   0  0  0  0  0  0  0  0  0  0  0  0
   18.1603   -7.4516   -4.2276 H   0  0  0  0  0  0  0  0  0  0  0  0
   18.0845   -4.6004   -4.0101 H   0  0  0  0  0  0  0  0  0  0  0  0
   15.2047   -4.0426   -4.5136 H   0  0  0  0  0  0  0  0  0  0  0  0
   16.9003   -3.0220   -0.6681 H   0  0  0  0  0  0  0  0  0  0  0  0
   17.4520   -2.1090   -2.0709 H   0  0  0  0  0  0  0  0  0  0  0  0
   17.9259   -3.7901   -1.8649 H   0  0  0  0  0  0  0  0  0  0  0  0
   15.0952   -4.7937   -0.9110 H   0  0  0  0  0  0  0  0  0  0  0  0
   16.1232   -5.6591   -2.0567 H   0  0  0  0  0  0  0  0  0  0  0  0
   14.4741   -5.2357   -2.4984 H   0  0  0  0  0  0  0  0  0  0  0  0
   15.0536   -1.5057   -2.5075 H   0  0  0  0  0  0  0  0  0  0  0  0
   14.5049   -2.4856   -1.1647 H   0  0  0  0  0  0  0  0  0  0  0  0
   13.8233   -2.7738   -2.7561 H   0  0  0  0  0  0  0  0  0  0  0  0
   17.0828   -1.1118   -6.9864 H   0  0  0  0  0  0  0  0  0  0  0  0
   18.0530    0.8794   -7.2756 H   0  0  0  0  0  0  0  0  0  0  0  0
   18.4316    2.4148   -4.8541 H   0  0  0  0  0  0  0  0  0  0  0  0
   19.2205    2.6412   -6.4113 H   0  0  0  0  0  0  0  0  0  0  0  0
   16.2044    3.4907   -4.3943 H   0  0  0  0  0  0  0  0  0  0  0  0
   14.7308    5.3673   -4.8492 H   0  0  0  0  0  0  0  0  0  0  0  0
   14.4227    6.1351   -9.8027 H   0  0  0  0  0  0  0  0  0  0  0  0
   12.7006    6.5154   -9.6784 H   0  0  0  0  0  0  0  0  0  0  0  0
   13.3792    5.2153   -8.7018 H   0  0  0  0  0  0  0  0  0  0  0  0
   13.1749   10.0661   -6.7651 H   0  0  0  0  0  0  0  0  0  0  0  0
   16.8440    6.1376   -8.5059 H   0  0  0  0  0  0  0  0  0  0  0  0
   18.3171    4.2434   -8.0509 H   0  0  0  0  0  0  0  0  0  0  0  0
   15.0427    0.5383   -7.7845 H   0  0  0  0  0  0  0  0  0  0  0  0
   15.0186   -1.1917   -8.1216 H   0  0  0  0  0  0  0  0  0  0  0  0
   13.5585    0.3017   -5.9163 H   0  0  0  0  0  0  0  0  0  0  0  0
   12.4605   -0.5426   -7.7740 H   0  0  0  0  0  0  0  0  0  0  0  0
   13.9009   -2.6376   -5.4598 H   0  0  0  0  0  0  0  0  0  0  0  0
   14.0539   -1.2694   -4.3647 H   0  0  0  0  0  0  0  0  0  0  0  0
  1 34  1  0  0  0  0
  1 35  1  0  0  0  0
  1 36  1  0  0  0  0
  1  2  1  0  0  0  0
  2  3  2  0  0  0  0
  2  4  1  0  0  0  0
  4 37  1  0  0  0  0
  5  4  1  0  0  0  0
  5 38  1  0  0  0  0
  5  6  1  0  0  0  0
  5 10  1  0  0  0  0
  6  7  1  0  0  0  0
  6  8  1  0  0  0  0
  6  9  1  0  0  0  0
  7 39  1  0  0  0  0
  7 40  1  0  0  0  0
  7 41  1  0  0  0  0
  8 42  1  0  0  0  0
  8 43  1  0  0  0  0
  8 44  1  0  0  0  0
  9 45  1  0  0  0  0
  9 46  1  0  0  0  0
  9 47  1  0  0  0  0
 10 11  2  0  0  0  0
 10 12  1  0  0  0  0
 12 33  1  0  0  0  0
 13 12  1  0  0  0  0
 13 30  1  0  0  0  0
 13 48  1  0  0  0  0
 13 14  1  0  0  0  0
 14 15  2  0  0  0  0
 14 16  1  0  0  0  0
 16 49  1  0  0  0  0
 16 17  1  0  0  0  0
 17 50  1  0  0  0  0
 17 51  1  0  0  0  0
 17 18  1  0  0  0  0
 18 19  1  0  0  0  0
 18 29  2  0  0  0  0
 19 52  1  0  0  0  0
 19 20  2  0  0  0  0
 20 53  1  0  0  0  0
 20 21  1  0  0  0  0
 21 28  2  0  0  0  0
 21 22  1  0  0  0  0
 22 23  2  0  0  0  0
 22 27  1  0  0  0  0
 23 24  1  0  0  0  0
 23 25  1  0  0  0  0
 24 54  1  0  0  0  0
 24 55  1  0  0  0  0
 24 56  1  0  0  0  0
 25 26  2  0  0  0  0
 26 57  1  0  0  0  0
 26 27  1  0  0  0  0
 28 58  1  0  0  0  0
 28 29  1  0  0  0  0
 29 59  1  0  0  0  0
 31 30  1  0  0  0  0
 30 60  1  0  0  0  0
 30 61  1  0  0  0  0
 31 33  1  0  0  0  0
 31 62  1  0  0  0  0
 31 32  1  0  0  0  0
 32 63  1  0  0  0  0
 33 64  1  0  0  0  0
 33 65  1  0  0  0  0
M  ZZC   1 c1
M  ZZC   2 c2
M  ZZC   3 o1
M  ZZC   4 n1
M  ZZC   5 c3
M  ZZC   6 c4
M  ZZC   7 c5
M  ZZC   8 c6
M  ZZC   9 c7
M  ZZC  10 c8
M  ZZC  11 o2
M  ZZC  12 n2
M  ZZC  13 c9
M  ZZC  14 c10
M  ZZC  15 o3
M  ZZC  16 n3
M  ZZC  17 c11
M  ZZC  18 c12
M  ZZC  19 c13
M  ZZC  20 c14
M  ZZC  21 c15
M  ZZC  22 c16
M  ZZC  23 c17
M  ZZC  24 c18
M  ZZC  25 n4
M  ZZC  26 c19
M  ZZC  27 s1
M  ZZC  28 c20
M  ZZC  29 c21
M  ZZC  30 c22
M  ZZC  31 c23
M  ZZC  32 o4
M  ZZC  33 c24
M  ZZC  34 h11
M  ZZC  35 h12
M  ZZC  36 h13
M  ZZC  37 h01
M  ZZC  38 h31
M  ZZC  39 h51
M  ZZC  40 h52
M  ZZC  41 h53
M  ZZC  42 h61
M  ZZC  43 h62
M  ZZC  44 h63
M  ZZC  45 h71
M  ZZC  46 h72
M  ZZC  47 h73
M  ZZC  48 h91
M  ZZC  49 h02
M  ZZC  50 h111
M  ZZC  51 h112
M  ZZC  52 h131
M  ZZC  53 h141
M  ZZC  54 h181
M  ZZC  55 h182
M  ZZC  56 h183
M  ZZC  57 h191
M  ZZC  58 h201
M  ZZC  59 h211
M  ZZC  60 h221
M  ZZC  61 h222
M  ZZC  62 h231
M  ZZC  63 h41
M  ZZC  64 h241
M  ZZC  65 h242
M  ZZM   1 1
M  ZZI   1 111
M  ZZM   2 3
M  ZZI   2 121
M  ZZM   3 7
M  ZZI   3 81
M  ZZM   4 10
M  ZZI   4 211
M  ZZM   5 1
M  ZZI   5 113
M  ZZM   6 1
M  ZZI   6 110
M  ZZM   7 1
M  ZZI   7 111
M  ZZM   8 1
M  ZZI   8 111
M  ZZM   9 1
M  ZZI   9 111
M  ZZM  10 3
M  ZZI  10 121
M  ZZM  11 7
M  ZZI  11 81
M  ZZM  12 10
M  ZZI  12 192
M  ZZM  13 1
M  ZZI  13 113
M  ZZM  14 3
M  ZZI  14 121
M  ZZM  15 7
M  ZZI  15 81
M  ZZM  16 10
M  ZZI  16 211
M  ZZM  17 1
M  ZZI  17 112
M  ZZM  18 37
M  ZZI  18 124
M  ZZM  19 37
M  ZZI  19 125
M  ZZM  20 37
M  ZZI  20 125
M  ZZM  21 37
M  ZZI  21 124
M  ZZM  22 63
M  ZZI  22 104
M  ZZM  23 64
M  ZZI  23 105
M  ZZM  24 1
M  ZZI  24 111
M  ZZM  25 66
M  ZZI  25 222
M  ZZM  26 63
M  ZZI  26 104
M  ZZM  27 44
M  ZZI  27 248
M  ZZM  28 37
M  ZZI  28 125
M  ZZM  29 37
M  ZZI  29 125
M  ZZM  30 1
M  ZZI  30 112
M  ZZM  31 1
M  ZZI  31 113
M  ZZM  32 6
M  ZZI  32 60
M  ZZM  33 1
M  ZZI  33 112
M  ZZM  34 5
M  ZZI  34 1
M  ZZM  35 5
M  ZZI  35 1
M  ZZM  36 5
M  ZZI  36 1
M  ZZM  37 28
M  ZZI  37 11
M  ZZM  38 5
M  ZZI  38 1
M  ZZM  39 5
M  ZZI  39 1
M  ZZM  40 5
M  ZZI  40 1
M  ZZM  41 5
M  ZZI  41 1
M  ZZM  42 5
M  ZZI  42 1
M  ZZM  43 5
M  ZZI  43 1
M  ZZM  44 5
M  ZZI  44 1
M  ZZM  45 5
M  ZZI  45 1
M  ZZM  46 5
M  ZZI  46 1
M  ZZM  47 5
M  ZZI  47 1
M  ZZM  48 5
M  ZZI  48 1
M  ZZM  49 28
M  ZZI  49 11
M  ZZM  50 5
M  ZZI  50 1
M  ZZM  51 5
M  ZZI  51 1
M  ZZM  52 5
M  ZZI  52 1
M  ZZM  53 5
M  ZZI  53 1
M  ZZM  54 5
M  ZZI  54 1
M  ZZM  55 5
M  ZZI  55 1
M  ZZM  56 5
M  ZZI  56 1
M  ZZM  57 5
M  ZZI  57 1
M  ZZM  58 5
M  ZZI  58 1
M  ZZM  59 5
M  ZZI  59 1
M  ZZM  60 5
M  ZZI  60 1
M  ZZM  61 5
M  ZZI  61 1
M  ZZM  62 5
M  ZZI  62 1
M  ZZM  63 21
M  ZZI  63 20
M  ZZM  64 5
M  ZZI  64 1
M  ZZM  65 5
M  ZZI  65 1
M  END
> <IX>
1

> <NAME>
VHL_6YOJ_3.pdb

> <Score>
-4.010299

> <Natom>
65

> <Nflex>
8

> <Hbond>
-5.005535

> <Hphob>
-6.604279

> <VwInt>
-27.360339

> <Dsolv>
22.4181

> <SolEl>
23.223964

> <Eintl>
5.829197

> <RecConf>
ND

> <projPath>
VHL_maps/

> <NAME_>
VHL_6YOJ_3.pdb

$$$$
