VHL_4QNQ_3.pdb
  MOLSOFT 04032206403D

 68 70  0  0  1  0  0  0  0  0999 V2000
   18.4173   -6.9534   -5.3656 C   0  0  0  0  0  0  0  0  0  0  0  0
   17.2309   -6.0298   -5.3196 C   0  0  0  0  0  0  0  0  0  0  0  0
   16.1320   -6.4048   -5.6965 O   0  0  0  0  0  0  0  0  0  0  0  0
   17.5160   -4.7804   -4.8015 N   0  0  0  0  0  0  0  0  0  0  0  0
   16.5319   -3.6993   -4.6905 C   0  0  1  0  0  0  0  0  0  0  0  0
   15.8940   -3.5841   -3.2668 C   0  0  0  0  0  0  0  0  0  0  0  0
   14.6523   -2.6793   -3.3088 C   0  0  0  0  0  0  0  0  0  0  0  0
   15.4344   -4.9581   -2.7553 C   0  0  0  0  0  0  0  0  0  0  0  0
   16.8770   -3.0073   -2.2354 C   0  0  0  0  0  0  0  0  0  0  0  0
   17.2186   -2.3973   -5.1459 C   0  0  0  0  0  0  0  0  0  0  0  0
   18.3639   -2.1342   -4.8086 O   0  0  0  0  0  0  0  0  0  0  0  0
   16.4749   -1.4818   -5.8916 N   0  0  0  0  0  0  0  0  0  0  0  0
   17.0111   -0.1608   -6.1963 C   0  0  2  0  0  0  0  0  0  0  0  0
   17.1057    0.7701   -4.9938 C   0  0  0  0  0  0  0  0  0  0  0  0
   16.3926    0.6712   -4.0044 O   0  0  0  0  0  0  0  0  0  0  0  0
   18.0090    1.7946   -5.2054 N   0  0  0  0  0  0  0  0  0  0  0  0
   18.0419    2.9765   -4.3671 C   0  0  1  0  0  0  0  0  0  0  0  0
   19.4759    3.4675   -4.1817 C   0  0  0  0  0  0  0  0  0  0  0  0
   17.1330    4.0334   -4.9632 C   0  0  0  0  0  0  0  0  0  0  0  0
   17.4111    4.6375   -6.1897 C   0  0  0  0  0  0  0  0  0  0  0  0
   16.5626    5.5923   -6.7232 C   0  0  0  0  0  0  0  0  0  0  0  0
   15.4092    5.9743   -6.0478 C   0  0  0  0  0  0  0  0  0  0  0  0
   14.5593    7.0294   -6.5804 C   0  0  0  0  0  0  0  0  0  0  0  0
   13.8987    7.1487   -7.7972 C   0  0  0  0  0  0  0  0  0  0  0  0
   13.8493    6.1492   -8.8885 C   0  0  0  0  0  0  0  0  0  0  0  0
   13.2284    8.3417   -7.9809 N   0  0  0  0  0  0  0  0  0  0  0  0
   13.3801    9.0979   -6.9171 C   0  0  0  0  0  0  0  0  0  0  0  0
   14.2911    8.4414   -5.6377 S   0  0  0  0  0  0  0  0  0  0  0  0
   15.1108    5.3520   -4.8401 C   0  0  0  0  0  0  0  0  0  0  0  0
   15.9587    4.3957   -4.3086 C   0  0  0  0  0  0  0  0  0  0  0  0
   16.0377    0.4534   -7.1970 C   0  0  0  0  0  0  0  0  0  0  0  0
   15.3920   -0.7479   -7.8490 C   0  0  1  0  0  0  0  0  0  0  0  0
   16.2023   -1.2040   -8.9412 O   0  0  0  0  0  0  0  0  0  0  0  0
   15.3379   -1.7855   -6.7361 C   0  0  0  0  0  0  0  0  0  0  0  0
   19.3576   -6.4078   -5.2464 H   0  0  0  0  0  0  0  0  0  0  0  0
   18.4367   -7.4632   -6.3325 H   0  0  0  0  0  0  0  0  0  0  0  0
   18.3214   -7.6934   -4.5676 H   0  0  0  0  0  0  0  0  0  0  0  0
   18.4642   -4.5876   -4.5012 H   0  0  0  0  0  0  0  0  0  0  0  0
   15.7560   -3.9413   -5.4031 H   0  0  0  0  0  0  0  0  0  0  0  0
   14.9130   -1.6541   -3.5914 H   0  0  0  0  0  0  0  0  0  0  0  0
   14.1613   -2.6295   -2.3320 H   0  0  0  0  0  0  0  0  0  0  0  0
   13.9134   -3.0274   -4.0346 H   0  0  0  0  0  0  0  0  0  0  0  0
   14.9408   -4.8802   -1.7816 H   0  0  0  0  0  0  0  0  0  0  0  0
   16.2694   -5.6526   -2.6299 H   0  0  0  0  0  0  0  0  0  0  0  0
   14.7174   -5.4146   -3.4396 H   0  0  0  0  0  0  0  0  0  0  0  0
   16.4505   -3.0214   -1.2271 H   0  0  0  0  0  0  0  0  0  0  0  0
   17.1388   -1.9674   -2.4522 H   0  0  0  0  0  0  0  0  0  0  0  0
   17.8053   -3.5807   -2.2006 H   0  0  0  0  0  0  0  0  0  0  0  0
   18.0057   -0.2873   -6.6285 H   0  0  0  0  0  0  0  0  0  0  0  0
   18.5672    1.7985   -6.0524 H   0  0  0  0  0  0  0  0  0  0  0  0
   17.6610    2.6978   -3.3784 H   0  0  0  0  0  0  0  0  0  0  0  0
   20.0788    2.7046   -3.6798 H   0  0  0  0  0  0  0  0  0  0  0  0
   19.5089    4.3769   -3.5735 H   0  0  0  0  0  0  0  0  0  0  0  0
   19.9660    3.6838   -5.1365 H   0  0  0  0  0  0  0  0  0  0  0  0
   18.3042    4.3699   -6.7462 H   0  0  0  0  0  0  0  0  0  0  0  0
   16.8254    6.0593   -7.6682 H   0  0  0  0  0  0  0  0  0  0  0  0
   14.8141    6.0854   -9.3996 H   0  0  0  0  0  0  0  0  0  0  0  0
   13.0942    6.4176   -9.6326 H   0  0  0  0  0  0  0  0  0  0  0  0
   13.5958    5.1572   -8.5027 H   0  0  0  0  0  0  0  0  0  0  0  0
   12.9588   10.0871   -6.8384 H   0  0  0  0  0  0  0  0  0  0  0  0
   14.2067    5.6100   -4.2957 H   0  0  0  0  0  0  0  0  0  0  0  0
   15.6909    3.9284   -3.3651 H   0  0  0  0  0  0  0  0  0  0  0  0
   15.2744    1.0519   -6.6858 H   0  0  0  0  0  0  0  0  0  0  0  0
   16.5516    1.1031   -7.9135 H   0  0  0  0  0  0  0  0  0  0  0  0
   14.3995   -0.5145   -8.2342 H   0  0  0  0  0  0  0  0  0  0  0  0
   17.1342   -1.1359   -8.6620 H   0  0  0  0  0  0  0  0  0  0  0  0
   15.4088   -2.8035   -7.1264 H   0  0  0  0  0  0  0  0  0  0  0  0
   14.4344   -1.6727   -6.1288 H   0  0  0  0  0  0  0  0  0  0  0  0
  1 35  1  0  0  0  0
  1 36  1  0  0  0  0
  1 37  1  0  0  0  0
  1  2  1  0  0  0  0
  2  3  2  0  0  0  0
  2  4  1  0  0  0  0
  4 38  1  0  0  0  0
  5  4  1  0  0  0  0
  5 39  1  0  0  0  0
  5  6  1  0  0  0  0
  5 10  1  0  0  0  0
  6  7  1  0  0  0  0
  6  8  1  0  0  0  0
  6  9  1  0  0  0  0
  7 40  1  0  0  0  0
  7 41  1  0  0  0  0
  7 42  1  0  0  0  0
  8 43  1  0  0  0  0
  8 44  1  0  0  0  0
  8 45  1  0  0  0  0
  9 46  1  0  0  0  0
  9 47  1  0  0  0  0
  9 48  1  0  0  0  0
 10 11  2  0  0  0  0
 10 12  1  0  0  0  0
 12 34  1  0  0  0  0
 13 12  1  0  0  0  0
 13 31  1  0  0  0  0
 13 49  1  0  0  0  0
 13 14  1  0  0  0  0
 14 15  2  0  0  0  0
 14 16  1  0  0  0  0
 16 50  1  0  0  0  0
 17 16  1  0  0  0  0
 17 51  1  0  0  0  0
 17 18  1  0  0  0  0
 17 19  1  0  0  0  0
 18 52  1  0  0  0  0
 18 53  1  0  0  0  0
 18 54  1  0  0  0  0
 19 20  1  0  0  0  0
 19 30  2  0  0  0  0
 20 55  1  0  0  0  0
 20 21  2  0  0  0  0
 21 56  1  0  0  0  0
 21 22  1  0  0  0  0
 22 29  2  0  0  0  0
 22 23  1  0  0  0  0
 23 24  2  0  0  0  0
 23 28  1  0  0  0  0
 24 25  1  0  0  0  0
 24 26  1  0  0  0  0
 25 57  1  0  0  0  0
 25 58  1  0  0  0  0
 25 59  1  0  0  0  0
 26 27  2  0  0  0  0
 27 60  1  0  0  0  0
 27 28  1  0  0  0  0
 29 61  1  0  0  0  0
 29 30  1  0  0  0  0
 30 62  1  0  0  0  0
 32 31  1  0  0  0  0
 31 63  1  0  0  0  0
 31 64  1  0  0  0  0
 32 34  1  0  0  0  0
 32 65  1  0  0  0  0
 32 33  1  0  0  0  0
 33 66  1  0  0  0  0
 34 67  1  0  0  0  0
 34 68  1  0  0  0  0
M  ZZC   1 c1
M  ZZC   2 c2
M  ZZC   3 o1
M  ZZC   4 n1
M  ZZC   5 c3
M  ZZC   6 c4
M  ZZC   7 c5
M  ZZC   8 c6
M  ZZC   9 c7
M  ZZC  10 c8
M  ZZC  11 o2
M  ZZC  12 n2
M  ZZC  13 c9
M  ZZC  14 c10
M  ZZC  15 o3
M  ZZC  16 n3
M  ZZC  17 c11
M  ZZC  18 c12
M  ZZC  19 c13
M  ZZC  20 c14
M  ZZC  21 c15
M  ZZC  22 c16
M  ZZC  23 c17
M  ZZC  24 c18
M  ZZC  25 c19
M  ZZC  26 n4
M  ZZC  27 c20
M  ZZC  28 s1
M  ZZC  29 c21
M  ZZC  30 c22
M  ZZC  31 c23
M  ZZC  32 c24
M  ZZC  33 o4
M  ZZC  34 c25
M  ZZC  35 h11
M  ZZC  36 h12
M  ZZC  37 h13
M  ZZC  38 h01
M  ZZC  39 h31
M  ZZC  40 h51
M  ZZC  41 h52
M  ZZC  42 h53
M  ZZC  43 h61
M  ZZC  44 h62
M  ZZC  45 h63
M  ZZC  46 h71
M  ZZC  47 h72
M  ZZC  48 h73
M  ZZC  49 h91
M  ZZC  50 h02
M  ZZC  51 h111
M  ZZC  52 h121
M  ZZC  53 h122
M  ZZC  54 h123
M  ZZC  55 h141
M  ZZC  56 h151
M  ZZC  57 h191
M  ZZC  58 h192
M  ZZC  59 h193
M  ZZC  60 h201
M  ZZC  61 h211
M  ZZC  62 h221
M  ZZC  63 h231
M  ZZC  64 h232
M  ZZC  65 h241
M  ZZC  66 h41
M  ZZC  67 h251
M  ZZC  68 h252
M  ZZM   1 1
M  ZZI   1 111
M  ZZM   2 3
M  ZZI   2 121
M  ZZM   3 7
M  ZZI   3 81
M  ZZM   4 10
M  ZZI   4 211
M  ZZM   5 1
M  ZZI   5 113
M  ZZM   6 1
M  ZZI   6 110
M  ZZM   7 1
M  ZZI   7 111
M  ZZM   8 1
M  ZZI   8 111
M  ZZM   9 1
M  ZZI   9 111
M  ZZM  10 3
M  ZZI  10 121
M  ZZM  11 7
M  ZZI  11 81
M  ZZM  12 10
M  ZZI  12 192
M  ZZM  13 1
M  ZZI  13 113
M  ZZM  14 3
M  ZZI  14 121
M  ZZM  15 7
M  ZZI  15 81
M  ZZM  16 10
M  ZZI  16 211
M  ZZM  17 1
M  ZZI  17 113
M  ZZM  18 1
M  ZZI  18 111
M  ZZM  19 37
M  ZZI  19 124
M  ZZM  20 37
M  ZZI  20 125
M  ZZM  21 37
M  ZZI  21 125
M  ZZM  22 37
M  ZZI  22 124
M  ZZM  23 63
M  ZZI  23 104
M  ZZM  24 64
M  ZZI  24 105
M  ZZM  25 1
M  ZZI  25 111
M  ZZM  26 66
M  ZZI  26 222
M  ZZM  27 63
M  ZZI  27 104
M  ZZM  28 44
M  ZZI  28 248
M  ZZM  29 37
M  ZZI  29 125
M  ZZM  30 37
M  ZZI  30 125
M  ZZM  31 1
M  ZZI  31 112
M  ZZM  32 1
M  ZZI  32 113
M  ZZM  33 6
M  ZZI  33 60
M  ZZM  34 1
M  ZZI  34 112
M  ZZM  35 5
M  ZZI  35 1
M  ZZM  36 5
M  ZZI  36 1
M  ZZM  37 5
M  ZZI  37 1
M  ZZM  38 28
M  ZZI  38 11
M  ZZM  39 5
M  ZZI  39 1
M  ZZM  40 5
M  ZZI  40 1
M  ZZM  41 5
M  ZZI  41 1
M  ZZM  42 5
M  ZZI  42 1
M  ZZM  43 5
M  ZZI  43 1
M  ZZM  44 5
M  ZZI  44 1
M  ZZM  45 5
M  ZZI  45 1
M  ZZM  46 5
M  ZZI  46 1
M  ZZM  47 5
M  ZZI  47 1
M  ZZM  48 5
M  ZZI  48 1
M  ZZM  49 5
M  ZZI  49 1
M  ZZM  50 28
M  ZZI  50 11
M  ZZM  51 5
M  ZZI  51 1
M  ZZM  52 5
M  ZZI  52 1
M  ZZM  53 5
M  ZZI  53 1
M  ZZM  54 5
M  ZZI  54 1
M  ZZM  55 5
M  ZZI  55 1
M  ZZM  56 5
M  ZZI  56 1
M  ZZM  57 5
M  ZZI  57 1
M  ZZM  58 5
M  ZZI  58 1
M  ZZM  59 5
M  ZZI  59 1
M  ZZM  60 5
M  ZZI  60 1
M  ZZM  61 5
M  ZZI  61 1
M  ZZM  62 5
M  ZZI  62 1
M  ZZM  63 5
M  ZZI  63 1
M  ZZM  64 5
M  ZZI  64 1
M  ZZM  65 5
M  ZZI  65 1
M  ZZM  66 21
M  ZZI  66 20
M  ZZM  67 5
M  ZZI  67 1
M  ZZM  68 5
M  ZZI  68 1
M  END
> <IX>
1

> <NAME>
VHL_4QNQ_3.pdb

> <Score>
-22.14518

> <Natom>
68

> <Nflex>
8

> <Hbond>
-7.976828

> <Hphob>
-6.330063

> <VwInt>
-30.930007

> <Dsolv>
22.090255

> <SolEl>
12.504166

> <Eintl>
5.97817

> <RecConf>
ND

> <projPath>
VHL_maps/

> <NAME_>
VHL_4QNQ_3.pdb

$$$$
