VHL_5T8E_3.pdb
  MOLSOFT 04032206423D

 56 58  0  0  1  0  0  0  0  0999 V2000
   17.2968   -2.4158   -4.9863 C   0  0  0  0  0  0  0  0  0  0  0  0
   16.3331   -1.9110   -5.9426 N   0  0  0  0  0  0  0  0  0  0  0  0
   15.6765   -0.7109   -5.7506 C   0  0  0  0  0  0  0  0  0  0  0  0
   15.8587    0.0023   -4.7727 O   0  0  0  0  0  0  0  0  0  0  0  0
   14.6351   -0.3924   -6.8317 C   0  0  2  0  0  0  0  0  0  0  0  0
   14.3802    1.0365   -6.8892 N   0  0  0  0  0  0  0  0  0  0  0  0
   15.0843    1.8913   -7.7342 C   0  0  0  0  0  0  0  0  0  0  0  0
   15.8247    1.4732   -8.6136 O   0  0  0  0  0  0  0  0  0  0  0  0
   14.9221    3.3951   -7.4976 C   0  0  2  0  0  0  0  0  0  0  0  0
   14.2955    4.0963   -8.7303 C   0  0  0  0  0  0  0  0  0  0  0  0
   13.9156    5.5491   -8.4324 C   0  0  0  0  0  0  0  0  0  0  0  0
   13.0756    3.3473   -9.2569 C   0  0  0  0  0  0  0  0  0  0  0  0
   16.2968    3.8776   -7.1530 C   0  0  0  0  0  0  0  0  0  0  0  0
   17.0133    4.5213   -8.1198 O   0  0  0  0  0  0  0  0  0  0  0  0
   18.2930    4.8096   -7.6381 N   0  0  0  0  0  0  0  0  0  0  0  0
   18.3245    4.3127   -6.3953 C   0  0  0  0  0  0  0  0  0  0  0  0
   19.5582    4.3888   -5.5825 C   0  0  0  0  0  0  0  0  0  0  0  0
   17.0835    3.7409   -6.0347 C   0  0  0  0  0  0  0  0  0  0  0  0
   13.2790    1.4002   -6.0249 C   0  0  0  0  0  0  0  0  0  0  0  0
   12.5745    0.0962   -5.6614 C   0  0  1  0  0  0  0  0  0  0  0  0
   11.1877    0.1080   -6.0212 O   0  0  0  0  0  0  0  0  0  0  0  0
   13.2875   -0.9861   -6.4543 C   0  0  0  0  0  0  0  0  0  0  0  0
   17.3178   -3.9179   -4.9636 C   0  0  0  0  0  0  0  0  0  0  0  0
   18.2528   -4.6434   -5.6961 C   0  0  0  0  0  0  0  0  0  0  0  0
   18.2128   -6.0242   -5.7487 C   0  0  0  0  0  0  0  0  0  0  0  0
   17.2255   -6.7088   -5.0623 C   0  0  0  0  0  0  0  0  0  0  0  0
   17.1099   -8.1295   -5.2187 C   0  0  0  0  0  0  0  0  0  0  0  0
   17.0286   -9.2691   -5.4313 N   0  0  0  0  0  0  0  0  0  0  0  0
   16.3310   -5.9901   -4.2787 C   0  0  0  0  0  0  0  0  0  0  0  0
   16.3685   -4.6128   -4.2320 C   0  0  0  0  0  0  0  0  0  0  0  0
   18.2708   -2.0265   -5.2836 H   0  0  0  0  0  0  0  0  0  0  0  0
   17.0877   -2.0192   -3.9868 H   0  0  0  0  0  0  0  0  0  0  0  0
   16.2816   -2.3824   -6.8393 H   0  0  0  0  0  0  0  0  0  0  0  0
   14.9950   -0.7640   -7.7984 H   0  0  0  0  0  0  0  0  0  0  0  0
   14.2859    3.5802   -6.6285 H   0  0  0  0  0  0  0  0  0  0  0  0
   15.0158    4.1214   -9.5472 H   0  0  0  0  0  0  0  0  0  0  0  0
   13.1808    5.6028   -7.6228 H   0  0  0  0  0  0  0  0  0  0  0  0
   13.4703    6.0350   -9.3047 H   0  0  0  0  0  0  0  0  0  0  0  0
   14.7845    6.1382   -8.1277 H   0  0  0  0  0  0  0  0  0  0  0  0
   12.6793    3.8304  -10.1491 H   0  0  0  0  0  0  0  0  0  0  0  0
   12.2766    3.3122   -8.5187 H   0  0  0  0  0  0  0  0  0  0  0  0
   13.3215    2.3243   -9.5438 H   0  0  0  0  0  0  0  0  0  0  0  0
   19.4379    5.1106   -4.7695 H   0  0  0  0  0  0  0  0  0  0  0  0
   20.4187    4.6956   -6.1852 H   0  0  0  0  0  0  0  0  0  0  0  0
   19.7908    3.4137   -5.1438 H   0  0  0  0  0  0  0  0  0  0  0  0
   16.8179    3.2509   -5.1085 H   0  0  0  0  0  0  0  0  0  0  0  0
   13.6904    1.8877   -5.1346 H   0  0  0  0  0  0  0  0  0  0  0  0
   12.6316    2.1049   -6.5436 H   0  0  0  0  0  0  0  0  0  0  0  0
   12.6435   -0.0917   -4.5851 H   0  0  0  0  0  0  0  0  0  0  0  0
   11.0939    0.5359   -6.8927 H   0  0  0  0  0  0  0  0  0  0  0  0
   12.7088   -1.2249   -7.3517 H   0  0  0  0  0  0  0  0  0  0  0  0
   13.3759   -1.9037   -5.8647 H   0  0  0  0  0  0  0  0  0  0  0  0
   19.0301   -4.1316   -6.2484 H   0  0  0  0  0  0  0  0  0  0  0  0
   18.9466   -6.5555   -6.3490 H   0  0  0  0  0  0  0  0  0  0  0  0
   15.5634   -6.4849   -3.7018 H   0  0  0  0  0  0  0  0  0  0  0  0
   15.6322   -4.0813   -3.6352 H   0  0  0  0  0  0  0  0  0  0  0  0
  1 31  1  0  0  0  0
  1 32  1  0  0  0  0
  1 23  1  0  0  0  0
  1  2  1  0  0  0  0
  2 33  1  0  0  0  0
  2  3  1  0  0  0  0
  3  4  2  0  0  0  0
  5  3  1  0  0  0  0
  5 34  1  0  0  0  0
  5 22  1  0  0  0  0
  5  6  1  0  0  0  0
  6 19  1  0  0  0  0
  6  7  1  0  0  0  0
  7  8  2  0  0  0  0
  9  7  1  0  0  0  0
  9 35  1  0  0  0  0
  9 10  1  0  0  0  0
  9 13  1  0  0  0  0
 10 36  1  0  0  0  0
 10 12  1  0  0  0  0
 10 11  1  0  0  0  0
 11 37  1  0  0  0  0
 11 38  1  0  0  0  0
 11 39  1  0  0  0  0
 12 40  1  0  0  0  0
 12 41  1  0  0  0  0
 12 42  1  0  0  0  0
 13 18  2  0  0  0  0
 13 14  1  0  0  0  0
 14 15  1  0  0  0  0
 15 16  2  0  0  0  0
 16 18  1  0  0  0  0
 16 17  1  0  0  0  0
 17 43  1  0  0  0  0
 17 44  1  0  0  0  0
 17 45  1  0  0  0  0
 18 46  1  0  0  0  0
 20 19  1  0  0  0  0
 19 47  1  0  0  0  0
 19 48  1  0  0  0  0
 20 22  1  0  0  0  0
 20 49  1  0  0  0  0
 20 21  1  0  0  0  0
 21 50  1  0  0  0  0
 22 51  1  0  0  0  0
 22 52  1  0  0  0  0
 23 24  1  0  0  0  0
 23 30  2  0  0  0  0
 24 53  1  0  0  0  0
 24 25  2  0  0  0  0
 25 54  1  0  0  0  0
 25 26  1  0  0  0  0
 26 27  1  0  0  0  0
 26 29  2  0  0  0  0
 27 28  3  0  0  0  0
 29 55  1  0  0  0  0
 29 30  1  0  0  0  0
 30 56  1  0  0  0  0
M  ZZC   1 c1
M  ZZC   2 n1
M  ZZC   3 c2
M  ZZC   4 o1
M  ZZC   5 c3
M  ZZC   6 n2
M  ZZC   7 c4
M  ZZC   8 o2
M  ZZC   9 c5
M  ZZC  10 c6
M  ZZC  11 c7
M  ZZC  12 c8
M  ZZC  13 c9
M  ZZC  14 o3
M  ZZC  15 n3
M  ZZC  16 c10
M  ZZC  17 c11
M  ZZC  18 c12
M  ZZC  19 c13
M  ZZC  20 c14
M  ZZC  21 o4
M  ZZC  22 c15
M  ZZC  23 c16
M  ZZC  24 c17
M  ZZC  25 c18
M  ZZC  26 c19
M  ZZC  27 c20
M  ZZC  28 n4
M  ZZC  29 c21
M  ZZC  30 c22
M  ZZC  31 h11
M  ZZC  32 h12
M  ZZC  33 h01
M  ZZC  34 h31
M  ZZC  35 h51
M  ZZC  36 h61
M  ZZC  37 h71
M  ZZC  38 h72
M  ZZC  39 h73
M  ZZC  40 h81
M  ZZC  41 h82
M  ZZC  42 h83
M  ZZC  43 h111
M  ZZC  44 h112
M  ZZC  45 h113
M  ZZC  46 h121
M  ZZC  47 h131
M  ZZC  48 h132
M  ZZC  49 h141
M  ZZC  50 h41
M  ZZC  51 h151
M  ZZC  52 h152
M  ZZC  53 h171
M  ZZC  54 h181
M  ZZC  55 h211
M  ZZC  56 h221
M  ZZM   1 1
M  ZZI   1 112
M  ZZM   2 10
M  ZZI   2 211
M  ZZM   3 3
M  ZZI   3 121
M  ZZM   4 7
M  ZZI   4 81
M  ZZM   5 1
M  ZZI   5 113
M  ZZM   6 10
M  ZZI   6 192
M  ZZM   7 3
M  ZZI   7 121
M  ZZM   8 7
M  ZZI   8 81
M  ZZM   9 1
M  ZZI   9 113
M  ZZM  10 1
M  ZZI  10 113
M  ZZM  11 1
M  ZZI  11 111
M  ZZM  12 1
M  ZZI  12 111
M  ZZM  13 63
M  ZZI  13 104
M  ZZM  14 59
M  ZZI  14 56
M  ZZM  15 65
M  ZZI  15 207
M  ZZM  16 64
M  ZZI  16 105
M  ZZM  17 1
M  ZZI  17 111
M  ZZM  18 64
M  ZZI  18 105
M  ZZM  19 1
M  ZZI  19 112
M  ZZM  20 1
M  ZZI  20 113
M  ZZM  21 6
M  ZZI  21 60
M  ZZM  22 1
M  ZZI  22 112
M  ZZM  23 37
M  ZZI  23 124
M  ZZM  24 37
M  ZZI  24 125
M  ZZM  25 37
M  ZZI  25 125
M  ZZM  26 37
M  ZZI  26 124
M  ZZM  27 4
M  ZZI  27 130
M  ZZM  28 42
M  ZZI  28 225
M  ZZM  29 37
M  ZZI  29 125
M  ZZM  30 37
M  ZZI  30 125
M  ZZM  31 5
M  ZZI  31 1
M  ZZM  32 5
M  ZZI  32 1
M  ZZM  33 28
M  ZZI  33 11
M  ZZM  34 5
M  ZZI  34 1
M  ZZM  35 5
M  ZZI  35 1
M  ZZM  36 5
M  ZZI  36 1
M  ZZM  37 5
M  ZZI  37 1
M  ZZM  38 5
M  ZZI  38 1
M  ZZM  39 5
M  ZZI  39 1
M  ZZM  40 5
M  ZZI  40 1
M  ZZM  41 5
M  ZZI  41 1
M  ZZM  42 5
M  ZZI  42 1
M  ZZM  43 5
M  ZZI  43 1
M  ZZM  44 5
M  ZZI  44 1
M  ZZM  45 5
M  ZZI  45 1
M  ZZM  46 5
M  ZZI  46 1
M  ZZM  47 5
M  ZZI  47 1
M  ZZM  48 5
M  ZZI  48 1
M  ZZM  49 5
M  ZZI  49 1
M  ZZM  50 21
M  ZZI  50 20
M  ZZM  51 5
M  ZZI  51 1
M  ZZM  52 5
M  ZZI  52 1
M  ZZM  53 5
M  ZZI  53 1
M  ZZM  54 5
M  ZZI  54 1
M  ZZM  55 5
M  ZZI  55 1
M  ZZM  56 5
M  ZZI  56 1
M  END
> <IX>
1

> <NAME>
VHL_5T8E_3.pdb

> <Score>
-8.277361

> <Natom>
56

> <Nflex>
8

> <Hbond>
-7.233891

> <Hphob>
-5.264219

> <VwInt>
-23.962113

> <Dsolv>
20.35134

> <SolEl>
19.542906

> <Eintl>
7.586167

> <RecConf>
ND

> <projPath>
VHL_maps/

> <NAME_>
VHL_5T8E_3.pdb

$$$$
