VHL_4QNQ_14.pdb
  MOLSOFT 04032206403D

 68 70  0  0  1  0  0  0  0  0999 V2000
   18.1099   -7.0797   -5.1336 C   0  0  0  0  0  0  0  0  0  0  0  0
   16.9641   -6.1091   -5.0845 C   0  0  0  0  0  0  0  0  0  0  0  0
   15.8923   -6.3814   -5.5970 O   0  0  0  0  0  0  0  0  0  0  0  0
   17.2455   -4.9526   -4.3854 N   0  0  0  0  0  0  0  0  0  0  0  0
   16.2957   -3.8449   -4.2158 C   0  0  1  0  0  0  0  0  0  0  0  0
   15.8270   -3.6568   -2.7405 C   0  0  0  0  0  0  0  0  0  0  0  0
   16.9546   -3.1597   -1.8235 C   0  0  0  0  0  0  0  0  0  0  0  0
   14.6678   -2.6537   -2.6369 C   0  0  0  0  0  0  0  0  0  0  0  0
   15.3069   -4.9947   -2.2050 C   0  0  0  0  0  0  0  0  0  0  0  0
   16.9941   -2.6110   -4.8082 C   0  0  0  0  0  0  0  0  0  0  0  0
   18.1836   -2.3995   -4.6164 O   0  0  0  0  0  0  0  0  0  0  0  0
   16.2273   -1.7074   -5.5362 N   0  0  0  0  0  0  0  0  0  0  0  0
   16.8306   -0.5105   -6.1044 C   0  0  2  0  0  0  0  0  0  0  0  0
   17.1457    0.5256   -5.0260 C   0  0  0  0  0  0  0  0  0  0  0  0
   16.4994    0.6235   -3.9911 O   0  0  0  0  0  0  0  0  0  0  0  0
   18.1488    1.4051   -5.3964 N   0  0  0  0  0  0  0  0  0  0  0  0
   18.2795    2.7024   -4.7522 C   0  0  1  0  0  0  0  0  0  0  0  0
   19.7269    3.1820   -4.7281 C   0  0  0  0  0  0  0  0  0  0  0  0
   17.3285    3.6456   -5.4534 C   0  0  0  0  0  0  0  0  0  0  0  0
   16.0219    3.7419   -4.9837 C   0  0  0  0  0  0  0  0  0  0  0  0
   15.0580    4.4029   -5.7115 C   0  0  0  0  0  0  0  0  0  0  0  0
   15.3843    5.0028   -6.9169 C   0  0  0  0  0  0  0  0  0  0  0  0
   14.3273    5.5657   -7.7229 C   0  0  0  0  0  0  0  0  0  0  0  0
   13.3641    4.9190   -8.4809 C   0  0  0  0  0  0  0  0  0  0  0  0
   13.2623    3.4626   -8.7383 C   0  0  0  0  0  0  0  0  0  0  0  0
   12.4029    5.7481   -9.0094 N   0  0  0  0  0  0  0  0  0  0  0  0
   12.7042    6.9955   -8.7216 C   0  0  0  0  0  0  0  0  0  0  0  0
   14.0993    7.2611   -7.7844 S   0  0  0  0  0  0  0  0  0  0  0  0
   16.6996    4.9886   -7.3576 C   0  0  0  0  0  0  0  0  0  0  0  0
   17.6627    4.3062   -6.6367 C   0  0  0  0  0  0  0  0  0  0  0  0
   15.7771    0.0345   -7.0700 C   0  0  0  0  0  0  0  0  0  0  0  0
   14.4766   -0.4717   -6.4674 C   0  0  1  0  0  0  0  0  0  0  0  0
   13.4205   -0.5333   -7.4194 O   0  0  0  0  0  0  0  0  0  0  0  0
   14.8691   -1.8585   -6.0054 C   0  0  0  0  0  0  0  0  0  0  0  0
   19.0686   -6.5545   -5.1845 H   0  0  0  0  0  0  0  0  0  0  0  0
   18.0137   -7.7094   -6.0227 H   0  0  0  0  0  0  0  0  0  0  0  0
   18.0768   -7.7092   -4.2416 H   0  0  0  0  0  0  0  0  0  0  0  0
   18.1917   -4.8190   -4.0463 H   0  0  0  0  0  0  0  0  0  0  0  0
   15.4220   -4.0818   -4.8148 H   0  0  0  0  0  0  0  0  0  0  0  0
   16.6303   -3.1185   -0.7787 H   0  0  0  0  0  0  0  0  0  0  0  0
   17.2880   -2.1529   -2.0929 H   0  0  0  0  0  0  0  0  0  0  0  0
   17.8234   -3.8145   -1.8616 H   0  0  0  0  0  0  0  0  0  0  0  0
   14.9639   -1.6633   -2.9979 H   0  0  0  0  0  0  0  0  0  0  0  0
   14.3404   -2.5261   -1.6008 H   0  0  0  0  0  0  0  0  0  0  0  0
   13.8040   -2.9595   -3.2332 H   0  0  0  0  0  0  0  0  0  0  0  0
   14.9483   -4.8919   -1.1781 H   0  0  0  0  0  0  0  0  0  0  0  0
   16.0838   -5.7616   -2.2050 H   0  0  0  0  0  0  0  0  0  0  0  0
   14.4741   -5.3705   -2.8066 H   0  0  0  0  0  0  0  0  0  0  0  0
   17.7541   -0.7764   -6.6207 H   0  0  0  0  0  0  0  0  0  0  0  0
   18.6487    1.2476   -6.2665 H   0  0  0  0  0  0  0  0  0  0  0  0
   17.9608    2.6028   -3.7082 H   0  0  0  0  0  0  0  0  0  0  0  0
   20.3154    2.5561   -4.0538 H   0  0  0  0  0  0  0  0  0  0  0  0
   19.7996    4.2120   -4.3651 H   0  0  0  0  0  0  0  0  0  0  0  0
   20.1999    3.1337   -5.7144 H   0  0  0  0  0  0  0  0  0  0  0  0
   15.7258    3.2410   -4.0661 H   0  0  0  0  0  0  0  0  0  0  0  0
   14.0342    4.4171   -5.3466 H   0  0  0  0  0  0  0  0  0  0  0  0
   14.1343    3.1097   -9.2961 H   0  0  0  0  0  0  0  0  0  0  0  0
   12.3756    3.2246   -9.3320 H   0  0  0  0  0  0  0  0  0  0  0  0
   13.2011    2.8984   -7.8041 H   0  0  0  0  0  0  0  0  0  0  0  0
   12.1044    7.8276   -9.0431 H   0  0  0  0  0  0  0  0  0  0  0  0
   16.9736    5.4734   -8.2902 H   0  0  0  0  0  0  0  0  0  0  0  0
   18.6685    4.2550   -7.0411 H   0  0  0  0  0  0  0  0  0  0  0  0
   15.7844    1.1238   -7.1805 H   0  0  0  0  0  0  0  0  0  0  0  0
   15.9165   -0.3871   -8.0730 H   0  0  0  0  0  0  0  0  0  0  0  0
   14.1600    0.1455   -5.6181 H   0  0  0  0  0  0  0  0  0  0  0  0
   13.0953    0.3733   -7.5620 H   0  0  0  0  0  0  0  0  0  0  0  0
   14.8947   -2.5577   -6.8473 H   0  0  0  0  0  0  0  0  0  0  0  0
   14.1921   -2.2604   -5.2516 H   0  0  0  0  0  0  0  0  0  0  0  0
  1 35  1  0  0  0  0
  1 36  1  0  0  0  0
  1 37  1  0  0  0  0
  1  2  1  0  0  0  0
  2  3  2  0  0  0  0
  2  4  1  0  0  0  0
  4 38  1  0  0  0  0
  5  4  1  0  0  0  0
  5 39  1  0  0  0  0
  5  6  1  0  0  0  0
  5 10  1  0  0  0  0
  6  7  1  0  0  0  0
  6  8  1  0  0  0  0
  6  9  1  0  0  0  0
  7 40  1  0  0  0  0
  7 41  1  0  0  0  0
  7 42  1  0  0  0  0
  8 43  1  0  0  0  0
  8 44  1  0  0  0  0
  8 45  1  0  0  0  0
  9 46  1  0  0  0  0
  9 47  1  0  0  0  0
  9 48  1  0  0  0  0
 10 11  2  0  0  0  0
 10 12  1  0  0  0  0
 12 34  1  0  0  0  0
 13 12  1  0  0  0  0
 13 31  1  0  0  0  0
 13 49  1  0  0  0  0
 13 14  1  0  0  0  0
 14 15  2  0  0  0  0
 14 16  1  0  0  0  0
 16 50  1  0  0  0  0
 17 16  1  0  0  0  0
 17 51  1  0  0  0  0
 17 18  1  0  0  0  0
 17 19  1  0  0  0  0
 18 52  1  0  0  0  0
 18 53  1  0  0  0  0
 18 54  1  0  0  0  0
 19 20  1  0  0  0  0
 19 30  2  0  0  0  0
 20 55  1  0  0  0  0
 20 21  2  0  0  0  0
 21 56  1  0  0  0  0
 21 22  1  0  0  0  0
 22 29  2  0  0  0  0
 22 23  1  0  0  0  0
 23 24  2  0  0  0  0
 23 28  1  0  0  0  0
 24 25  1  0  0  0  0
 24 26  1  0  0  0  0
 25 57  1  0  0  0  0
 25 58  1  0  0  0  0
 25 59  1  0  0  0  0
 26 27  2  0  0  0  0
 27 60  1  0  0  0  0
 27 28  1  0  0  0  0
 29 61  1  0  0  0  0
 29 30  1  0  0  0  0
 30 62  1  0  0  0  0
 32 31  1  0  0  0  0
 31 63  1  0  0  0  0
 31 64  1  0  0  0  0
 32 34  1  0  0  0  0
 32 65  1  0  0  0  0
 32 33  1  0  0  0  0
 33 66  1  0  0  0  0
 34 67  1  0  0  0  0
 34 68  1  0  0  0  0
M  ZZC   1 c1
M  ZZC   2 c2
M  ZZC   3 o1
M  ZZC   4 n1
M  ZZC   5 c3
M  ZZC   6 c4
M  ZZC   7 c5
M  ZZC   8 c6
M  ZZC   9 c7
M  ZZC  10 c8
M  ZZC  11 o2
M  ZZC  12 n2
M  ZZC  13 c9
M  ZZC  14 c10
M  ZZC  15 o3
M  ZZC  16 n3
M  ZZC  17 c11
M  ZZC  18 c12
M  ZZC  19 c13
M  ZZC  20 c14
M  ZZC  21 c15
M  ZZC  22 c16
M  ZZC  23 c17
M  ZZC  24 c18
M  ZZC  25 c19
M  ZZC  26 n4
M  ZZC  27 c20
M  ZZC  28 s1
M  ZZC  29 c21
M  ZZC  30 c22
M  ZZC  31 c23
M  ZZC  32 c24
M  ZZC  33 o4
M  ZZC  34 c25
M  ZZC  35 h11
M  ZZC  36 h12
M  ZZC  37 h13
M  ZZC  38 h01
M  ZZC  39 h31
M  ZZC  40 h51
M  ZZC  41 h52
M  ZZC  42 h53
M  ZZC  43 h61
M  ZZC  44 h62
M  ZZC  45 h63
M  ZZC  46 h71
M  ZZC  47 h72
M  ZZC  48 h73
M  ZZC  49 h91
M  ZZC  50 h02
M  ZZC  51 h111
M  ZZC  52 h121
M  ZZC  53 h122
M  ZZC  54 h123
M  ZZC  55 h141
M  ZZC  56 h151
M  ZZC  57 h191
M  ZZC  58 h192
M  ZZC  59 h193
M  ZZC  60 h201
M  ZZC  61 h211
M  ZZC  62 h221
M  ZZC  63 h231
M  ZZC  64 h232
M  ZZC  65 h241
M  ZZC  66 h41
M  ZZC  67 h251
M  ZZC  68 h252
M  ZZM   1 1
M  ZZI   1 111
M  ZZM   2 3
M  ZZI   2 121
M  ZZM   3 7
M  ZZI   3 81
M  ZZM   4 10
M  ZZI   4 211
M  ZZM   5 1
M  ZZI   5 113
M  ZZM   6 1
M  ZZI   6 110
M  ZZM   7 1
M  ZZI   7 111
M  ZZM   8 1
M  ZZI   8 111
M  ZZM   9 1
M  ZZI   9 111
M  ZZM  10 3
M  ZZI  10 121
M  ZZM  11 7
M  ZZI  11 81
M  ZZM  12 10
M  ZZI  12 192
M  ZZM  13 1
M  ZZI  13 113
M  ZZM  14 3
M  ZZI  14 121
M  ZZM  15 7
M  ZZI  15 81
M  ZZM  16 10
M  ZZI  16 211
M  ZZM  17 1
M  ZZI  17 113
M  ZZM  18 1
M  ZZI  18 111
M  ZZM  19 37
M  ZZI  19 124
M  ZZM  20 37
M  ZZI  20 125
M  ZZM  21 37
M  ZZI  21 125
M  ZZM  22 37
M  ZZI  22 124
M  ZZM  23 63
M  ZZI  23 104
M  ZZM  24 64
M  ZZI  24 105
M  ZZM  25 1
M  ZZI  25 111
M  ZZM  26 66
M  ZZI  26 222
M  ZZM  27 63
M  ZZI  27 104
M  ZZM  28 44
M  ZZI  28 248
M  ZZM  29 37
M  ZZI  29 125
M  ZZM  30 37
M  ZZI  30 125
M  ZZM  31 1
M  ZZI  31 112
M  ZZM  32 1
M  ZZI  32 113
M  ZZM  33 6
M  ZZI  33 60
M  ZZM  34 1
M  ZZI  34 112
M  ZZM  35 5
M  ZZI  35 1
M  ZZM  36 5
M  ZZI  36 1
M  ZZM  37 5
M  ZZI  37 1
M  ZZM  38 28
M  ZZI  38 11
M  ZZM  39 5
M  ZZI  39 1
M  ZZM  40 5
M  ZZI  40 1
M  ZZM  41 5
M  ZZI  41 1
M  ZZM  42 5
M  ZZI  42 1
M  ZZM  43 5
M  ZZI  43 1
M  ZZM  44 5
M  ZZI  44 1
M  ZZM  45 5
M  ZZI  45 1
M  ZZM  46 5
M  ZZI  46 1
M  ZZM  47 5
M  ZZI  47 1
M  ZZM  48 5
M  ZZI  48 1
M  ZZM  49 5
M  ZZI  49 1
M  ZZM  50 28
M  ZZI  50 11
M  ZZM  51 5
M  ZZI  51 1
M  ZZM  52 5
M  ZZI  52 1
M  ZZM  53 5
M  ZZI  53 1
M  ZZM  54 5
M  ZZI  54 1
M  ZZM  55 5
M  ZZI  55 1
M  ZZM  56 5
M  ZZI  56 1
M  ZZM  57 5
M  ZZI  57 1
M  ZZM  58 5
M  ZZI  58 1
M  ZZM  59 5
M  ZZI  59 1
M  ZZM  60 5
M  ZZI  60 1
M  ZZM  61 5
M  ZZI  61 1
M  ZZM  62 5
M  ZZI  62 1
M  ZZM  63 5
M  ZZI  63 1
M  ZZM  64 5
M  ZZI  64 1
M  ZZM  65 5
M  ZZI  65 1
M  ZZM  66 21
M  ZZI  66 20
M  ZZM  67 5
M  ZZI  67 1
M  ZZM  68 5
M  ZZI  68 1
M  END
> <IX>
1

> <NAME>
VHL_4QNQ_14.pdb

> <Score>
-2.731599

> <Natom>
68

> <Nflex>
8

> <Hbond>
-5.305018

> <Hphob>
-6.856896

> <VwInt>
-26.931368

> <Dsolv>
22.225204

> <SolEl>
24.188143

> <Eintl>
7.970848

> <RecConf>
ND

> <projPath>
VHL_maps/

> <NAME_>
VHL_4QNQ_14.pdb

$$$$
