VHL_6XJK_4.pdb
  MOLSOFT 04032206443D

 65 67  0  0  1  0  0  0  0  0999 V2000
   13.9125    8.3478   -1.8713 C   0  0  0  0  0  0  0  0  0  0  0  0
   13.3845    7.0645   -2.4501 C   0  0  0  0  0  0  0  0  0  0  0  0
   12.2411    6.6907   -2.2344 O   0  0  0  0  0  0  0  0  0  0  0  0
   14.3238    6.3899   -3.2096 N   0  0  0  0  0  0  0  0  0  0  0  0
   14.0444    5.1167   -3.8848 C   0  0  2  0  0  0  0  0  0  0  0  0
   14.4225    3.8789   -3.0001 C   0  0  0  0  0  0  0  0  0  0  0  0
   15.8851    3.9274   -2.5245 C   0  0  0  0  0  0  0  0  0  0  0  0
   14.1864    2.5596   -3.7571 C   0  0  0  0  0  0  0  0  0  0  0  0
   13.5296    3.8240   -1.7492 C   0  0  0  0  0  0  0  0  0  0  0  0
   14.7014    5.1357   -5.2865 C   0  0  0  0  0  0  0  0  0  0  0  0
   15.5999    4.3642   -5.5948 O   0  0  0  0  0  0  0  0  0  0  0  0
   14.1808    6.0134   -6.2421 N   0  0  0  0  0  0  0  0  0  0  0  0
   14.5413    5.8982   -7.6518 C   0  0  1  0  0  0  0  0  0  0  0  0
   13.6982    4.7739   -8.2717 C   0  0  0  0  0  0  0  0  0  0  0  0
   12.6556    4.9724   -8.8836 O   0  0  0  0  0  0  0  0  0  0  0  0
   14.2160    3.5225   -8.0002 N   0  0  0  0  0  0  0  0  0  0  0  0
   13.5814    2.3013   -8.4374 C   0  0  0  0  0  0  0  0  0  0  0  0
   13.9053    1.1434   -7.5250 C   0  0  0  0  0  0  0  0  0  0  0  0
   15.2146    0.7085   -7.3435 C   0  0  0  0  0  0  0  0  0  0  0  0
   15.5161   -0.2956   -6.4377 C   0  0  0  0  0  0  0  0  0  0  0  0
   14.5211   -0.9210   -5.6880 C   0  0  0  0  0  0  0  0  0  0  0  0
   14.8517   -1.9318   -4.6736 C   0  0  0  0  0  0  0  0  0  0  0  0
   15.8330   -2.9212   -4.6315 C   0  0  0  0  0  0  0  0  0  0  0  0
   16.8362   -3.2457   -5.6685 C   0  0  0  0  0  0  0  0  0  0  0  0
   15.8516   -3.6962   -3.4884 N   0  0  0  0  0  0  0  0  0  0  0  0
   14.9117   -3.2972   -2.6662 C   0  0  0  0  0  0  0  0  0  0  0  0
   13.9632   -1.9828   -3.1945 S   0  0  0  0  0  0  0  0  0  0  0  0
   13.2041   -0.5235   -5.9266 C   0  0  0  0  0  0  0  0  0  0  0  0
   12.9018    0.4913   -6.8190 C   0  0  0  0  0  0  0  0  0  0  0  0
   14.2350    7.2630   -8.2387 C   0  0  0  0  0  0  0  0  0  0  0  0
   13.0909    7.7807   -7.3892 C   0  0  2  0  0  0  0  0  0  0  0  0
   13.1776    9.2009   -7.3167 O   0  0  0  0  0  0  0  0  0  0  0  0
   13.2914    7.1377   -6.0206 C   0  0  0  0  0  0  0  0  0  0  0  0
   14.8040    8.1458   -1.2697 H   0  0  0  0  0  0  0  0  0  0  0  0
   13.1510    8.8067   -1.2334 H   0  0  0  0  0  0  0  0  0  0  0  0
   14.1659    9.0407   -2.6797 H   0  0  0  0  0  0  0  0  0  0  0  0
   15.2558    6.7832   -3.2930 H   0  0  0  0  0  0  0  0  0  0  0  0
   12.9655    5.0762   -4.0619 H   0  0  0  0  0  0  0  0  0  0  0  0
   16.1305    3.0515   -1.9150 H   0  0  0  0  0  0  0  0  0  0  0  0
   16.0835    4.8101   -1.9088 H   0  0  0  0  0  0  0  0  0  0  0  0
   16.5934    3.9425   -3.3568 H   0  0  0  0  0  0  0  0  0  0  0  0
   14.2322    1.6963   -3.0853 H   0  0  0  0  0  0  0  0  0  0  0  0
   14.9326    2.3790   -4.5331 H   0  0  0  0  0  0  0  0  0  0  0  0
   13.2040    2.5477   -4.2345 H   0  0  0  0  0  0  0  0  0  0  0  0
   13.7016    4.6744   -1.0842 H   0  0  0  0  0  0  0  0  0  0  0  0
   13.7210    2.9226   -1.1578 H   0  0  0  0  0  0  0  0  0  0  0  0
   12.4686    3.8101   -2.0152 H   0  0  0  0  0  0  0  0  0  0  0  0
   15.6030    5.6489   -7.7660 H   0  0  0  0  0  0  0  0  0  0  0  0
   15.0317    3.4574   -7.3952 H   0  0  0  0  0  0  0  0  0  0  0  0
   12.5051    2.4765   -8.4988 H   0  0  0  0  0  0  0  0  0  0  0  0
   13.9270    2.0997   -9.4530 H   0  0  0  0  0  0  0  0  0  0  0  0
   16.0279    1.1773   -7.8893 H   0  0  0  0  0  0  0  0  0  0  0  0
   16.5603   -0.5586   -6.3027 H   0  0  0  0  0  0  0  0  0  0  0  0
   17.1566   -4.2892   -5.5928 H   0  0  0  0  0  0  0  0  0  0  0  0
   17.7210   -2.6131   -5.5566 H   0  0  0  0  0  0  0  0  0  0  0  0
   16.4187   -3.0996   -6.6682 H   0  0  0  0  0  0  0  0  0  0  0  0
   14.7476   -3.7675   -1.7071 H   0  0  0  0  0  0  0  0  0  0  0  0
   12.3774   -0.9939   -5.4078 H   0  0  0  0  0  0  0  0  0  0  0  0
   11.8627    0.7837   -6.9452 H   0  0  0  0  0  0  0  0  0  0  0  0
   15.1055    7.9222   -8.1421 H   0  0  0  0  0  0  0  0  0  0  0  0
   13.9754    7.2347   -9.3023 H   0  0  0  0  0  0  0  0  0  0  0  0
   12.1317    7.4998   -7.8302 H   0  0  0  0  0  0  0  0  0  0  0  0
   12.4511    9.5131   -6.7524 H   0  0  0  0  0  0  0  0  0  0  0  0
   12.3473    6.7901   -5.5891 H   0  0  0  0  0  0  0  0  0  0  0  0
   13.7540    7.8317   -5.3126 H   0  0  0  0  0  0  0  0  0  0  0  0
  1 34  1  0  0  0  0
  1 35  1  0  0  0  0
  1 36  1  0  0  0  0
  1  2  1  0  0  0  0
  2  3  2  0  0  0  0
  2  4  1  0  0  0  0
  4 37  1  0  0  0  0
  5  4  1  0  0  0  0
  5 38  1  0  0  0  0
  5  6  1  0  0  0  0
  5 10  1  0  0  0  0
  6  7  1  0  0  0  0
  6  8  1  0  0  0  0
  6  9  1  0  0  0  0
  7 39  1  0  0  0  0
  7 40  1  0  0  0  0
  7 41  1  0  0  0  0
  8 42  1  0  0  0  0
  8 43  1  0  0  0  0
  8 44  1  0  0  0  0
  9 45  1  0  0  0  0
  9 46  1  0  0  0  0
  9 47  1  0  0  0  0
 10 11  2  0  0  0  0
 10 12  1  0  0  0  0
 12 33  1  0  0  0  0
 13 12  1  0  0  0  0
 13 30  1  0  0  0  0
 13 48  1  0  0  0  0
 13 14  1  0  0  0  0
 14 15  2  0  0  0  0
 14 16  1  0  0  0  0
 16 49  1  0  0  0  0
 16 17  1  0  0  0  0
 17 50  1  0  0  0  0
 17 51  1  0  0  0  0
 17 18  1  0  0  0  0
 18 19  1  0  0  0  0
 18 29  2  0  0  0  0
 19 52  1  0  0  0  0
 19 20  2  0  0  0  0
 20 53  1  0  0  0  0
 20 21  1  0  0  0  0
 21 28  2  0  0  0  0
 21 22  1  0  0  0  0
 22 23  2  0  0  0  0
 22 27  1  0  0  0  0
 23 24  1  0  0  0  0
 23 25  1  0  0  0  0
 24 54  1  0  0  0  0
 24 55  1  0  0  0  0
 24 56  1  0  0  0  0
 25 26  2  0  0  0  0
 26 57  1  0  0  0  0
 26 27  1  0  0  0  0
 28 58  1  0  0  0  0
 28 29  1  0  0  0  0
 29 59  1  0  0  0  0
 31 30  1  0  0  0  0
 30 60  1  0  0  0  0
 30 61  1  0  0  0  0
 31 33  1  0  0  0  0
 31 62  1  0  0  0  0
 31 32  1  0  0  0  0
 32 63  1  0  0  0  0
 33 64  1  0  0  0  0
 33 65  1  0  0  0  0
M  ZZC   1 c1
M  ZZC   2 c2
M  ZZC   3 o1
M  ZZC   4 n1
M  ZZC   5 c3
M  ZZC   6 c4
M  ZZC   7 c5
M  ZZC   8 c6
M  ZZC   9 c7
M  ZZC  10 c8
M  ZZC  11 o2
M  ZZC  12 n2
M  ZZC  13 c9
M  ZZC  14 c10
M  ZZC  15 o3
M  ZZC  16 n3
M  ZZC  17 c11
M  ZZC  18 c12
M  ZZC  19 c13
M  ZZC  20 c14
M  ZZC  21 c15
M  ZZC  22 c16
M  ZZC  23 c17
M  ZZC  24 c18
M  ZZC  25 n4
M  ZZC  26 c19
M  ZZC  27 s1
M  ZZC  28 c20
M  ZZC  29 c21
M  ZZC  30 c22
M  ZZC  31 c23
M  ZZC  32 o4
M  ZZC  33 c24
M  ZZC  34 h11
M  ZZC  35 h12
M  ZZC  36 h13
M  ZZC  37 h01
M  ZZC  38 h31
M  ZZC  39 h51
M  ZZC  40 h52
M  ZZC  41 h53
M  ZZC  42 h61
M  ZZC  43 h62
M  ZZC  44 h63
M  ZZC  45 h71
M  ZZC  46 h72
M  ZZC  47 h73
M  ZZC  48 h91
M  ZZC  49 h02
M  ZZC  50 h111
M  ZZC  51 h112
M  ZZC  52 h131
M  ZZC  53 h141
M  ZZC  54 h181
M  ZZC  55 h182
M  ZZC  56 h183
M  ZZC  57 h191
M  ZZC  58 h201
M  ZZC  59 h211
M  ZZC  60 h221
M  ZZC  61 h222
M  ZZC  62 h231
M  ZZC  63 h41
M  ZZC  64 h241
M  ZZC  65 h242
M  ZZM   1 1
M  ZZI   1 111
M  ZZM   2 3
M  ZZI   2 121
M  ZZM   3 7
M  ZZI   3 81
M  ZZM   4 10
M  ZZI   4 211
M  ZZM   5 1
M  ZZI   5 113
M  ZZM   6 1
M  ZZI   6 110
M  ZZM   7 1
M  ZZI   7 111
M  ZZM   8 1
M  ZZI   8 111
M  ZZM   9 1
M  ZZI   9 111
M  ZZM  10 3
M  ZZI  10 121
M  ZZM  11 7
M  ZZI  11 81
M  ZZM  12 10
M  ZZI  12 192
M  ZZM  13 1
M  ZZI  13 113
M  ZZM  14 3
M  ZZI  14 121
M  ZZM  15 7
M  ZZI  15 81
M  ZZM  16 10
M  ZZI  16 211
M  ZZM  17 1
M  ZZI  17 112
M  ZZM  18 37
M  ZZI  18 124
M  ZZM  19 37
M  ZZI  19 125
M  ZZM  20 37
M  ZZI  20 125
M  ZZM  21 37
M  ZZI  21 124
M  ZZM  22 63
M  ZZI  22 104
M  ZZM  23 64
M  ZZI  23 105
M  ZZM  24 1
M  ZZI  24 111
M  ZZM  25 66
M  ZZI  25 222
M  ZZM  26 63
M  ZZI  26 104
M  ZZM  27 44
M  ZZI  27 248
M  ZZM  28 37
M  ZZI  28 125
M  ZZM  29 37
M  ZZI  29 125
M  ZZM  30 1
M  ZZI  30 112
M  ZZM  31 1
M  ZZI  31 113
M  ZZM  32 6
M  ZZI  32 60
M  ZZM  33 1
M  ZZI  33 112
M  ZZM  34 5
M  ZZI  34 1
M  ZZM  35 5
M  ZZI  35 1
M  ZZM  36 5
M  ZZI  36 1
M  ZZM  37 28
M  ZZI  37 11
M  ZZM  38 5
M  ZZI  38 1
M  ZZM  39 5
M  ZZI  39 1
M  ZZM  40 5
M  ZZI  40 1
M  ZZM  41 5
M  ZZI  41 1
M  ZZM  42 5
M  ZZI  42 1
M  ZZM  43 5
M  ZZI  43 1
M  ZZM  44 5
M  ZZI  44 1
M  ZZM  45 5
M  ZZI  45 1
M  ZZM  46 5
M  ZZI  46 1
M  ZZM  47 5
M  ZZI  47 1
M  ZZM  48 5
M  ZZI  48 1
M  ZZM  49 28
M  ZZI  49 11
M  ZZM  50 5
M  ZZI  50 1
M  ZZM  51 5
M  ZZI  51 1
M  ZZM  52 5
M  ZZI  52 1
M  ZZM  53 5
M  ZZI  53 1
M  ZZM  54 5
M  ZZI  54 1
M  ZZM  55 5
M  ZZI  55 1
M  ZZM  56 5
M  ZZI  56 1
M  ZZM  57 5
M  ZZI  57 1
M  ZZM  58 5
M  ZZI  58 1
M  ZZM  59 5
M  ZZI  59 1
M  ZZM  60 5
M  ZZI  60 1
M  ZZM  61 5
M  ZZI  61 1
M  ZZM  62 5
M  ZZI  62 1
M  ZZM  63 21
M  ZZI  63 20
M  ZZM  64 5
M  ZZI  64 1
M  ZZM  65 5
M  ZZI  65 1
M  END
> <IX>
1

> <NAME>
VHL_6XJK_4.pdb

> <Score>
-11.384601

> <Natom>
65

> <Nflex>
8

> <Hbond>
-3.762686

> <Hphob>
-6.731617

> <VwInt>
-28.213673

> <Dsolv>
16.917794

> <SolEl>
15.044433

> <Eintl>
5.735299

> <RecConf>
ND

> <projPath>
VHL_maps/

> <NAME_>
VHL_6XJK_4.pdb

$$$$
