VHL_5T8E_48.pdb
  MOLSOFT 04032206463D

 80 83  0  0  1  0  0  0  0  0999 V2000
   18.9895   -7.6862   -5.3570 N   0  3  0  0  0  0  0  0  0  0  0  0
   17.5441   -7.9089   -4.9961 C   0  0  0  0  0  0  0  0  0  0  0  0
   16.6915   -6.7115   -5.3928 C   0  0  0  0  0  0  0  0  0  0  0  0
   17.3487   -5.4579   -5.0745 N   0  0  0  0  0  0  0  0  0  0  0  0
   16.6667   -4.5161   -4.3172 C   0  0  0  0  0  0  0  0  0  0  0  0
   15.5536   -4.7148   -3.8568 O   0  0  0  0  0  0  0  0  0  0  0  0
   17.3116   -3.3170   -4.1629 N   0  0  0  0  0  0  0  0  0  0  0  0
   16.5890   -2.0954   -3.8149 C   0  0  1  0  0  0  0  0  0  0  0  0
   16.8901   -1.5459   -2.3911 C   0  0  0  0  0  0  0  0  0  0  0  0
   16.5588   -2.6240   -1.3438 C   0  0  0  0  0  0  0  0  0  0  0  0
   16.0005   -0.3243   -2.1156 C   0  0  0  0  0  0  0  0  0  0  0  0
   18.3530   -1.1278   -2.1992 C   0  0  0  0  0  0  0  0  0  0  0  0
   16.9320   -1.1526   -4.9863 C   0  0  0  0  0  0  0  0  0  0  0  0
   18.0970   -0.8937   -5.2673 O   0  0  0  0  0  0  0  0  0  0  0  0
   15.8680   -0.6847   -5.7589 N   0  0  0  0  0  0  0  0  0  0  0  0
   16.0607   -0.1011   -7.0902 C   0  0  2  0  0  0  0  0  0  0  0  0
   16.4606    1.3826   -7.1275 C   0  0  0  0  0  0  0  0  0  0  0  0
   16.0883    2.1365   -8.0177 O   0  0  0  0  0  0  0  0  0  0  0  0
   17.4139    1.7379   -6.1935 N   0  0  0  0  0  0  0  0  0  0  0  0
   17.9490    3.0839   -6.0599 C   0  0  1  0  0  0  0  0  0  0  0  0
   18.1279    3.4045   -4.5772 C   0  0  0  0  0  0  0  0  0  0  0  0
   19.2578    3.2938   -6.7998 C   0  0  0  0  0  0  0  0  0  0  0  0
   20.1387    2.2537   -7.0782 C   0  0  0  0  0  0  0  0  0  0  0  0
   21.3618    2.4954   -7.6791 C   0  0  0  0  0  0  0  0  0  0  0  0
   21.7521    3.7795   -8.0527 C   0  0  0  0  0  0  0  0  0  0  0  0
   23.0349    4.0303   -8.7156 C   0  0  0  0  0  0  0  0  0  0  0  0
   23.3673    4.8413   -9.7982 C   0  0  0  0  0  0  0  0  0  0  0  0
   22.4646    5.6967  -10.6046 C   0  0  0  0  0  0  0  0  0  0  0  0
   24.7001    4.8269  -10.1595 N   0  0  0  0  0  0  0  0  0  0  0  0
   25.3693    4.0237   -9.3668 C   0  0  0  0  0  0  0  0  0  0  0  0
   24.4658    3.2553   -8.1454 S   0  0  0  0  0  0  0  0  0  0  0  0
   20.8633    4.8163   -7.7885 C   0  0  0  0  0  0  0  0  0  0  0  0
   19.6445    4.5776   -7.1748 C   0  0  0  0  0  0  0  0  0  0  0  0
   14.7250   -0.3462   -7.7762 C   0  0  0  0  0  0  0  0  0  0  0  0
   13.7107   -0.2967   -6.6473 C   0  0  1  0  0  0  0  0  0  0  0  0
   12.5346   -1.0462   -6.9585 O   0  0  0  0  0  0  0  0  0  0  0  0
   14.4606   -0.9469   -5.5036 C   0  0  0  0  0  0  0  0  0  0  0  0
   18.6593   -5.2612   -5.6930 C   0  0  0  0  0  0  0  0  0  0  0  0
   19.2510   -6.5409   -6.2840 C   0  0  0  0  0  0  0  0  0  0  0  0
   19.5018   -7.5145   -4.4884 H   0  0  0  0  0  0  0  0  0  0  0  0
   19.4023   -8.5563   -5.7132 H   0  0  0  0  0  0  0  0  0  0  0  0
   17.2060   -8.8188   -5.4937 H   0  0  0  0  0  0  0  0  0  0  0  0
   17.5233   -8.0679   -3.9161 H   0  0  0  0  0  0  0  0  0  0  0  0
   16.5029   -6.7237   -6.4678 H   0  0  0  0  0  0  0  0  0  0  0  0
   15.7185   -6.7569   -4.9135 H   0  0  0  0  0  0  0  0  0  0  0  0
   18.2814   -3.2395   -4.4345 H   0  0  0  0  0  0  0  0  0  0  0  0
   15.5268   -2.3423   -3.8455 H   0  0  0  0  0  0  0  0  0  0  0  0
   16.6853   -2.2453   -0.3244 H   0  0  0  0  0  0  0  0  0  0  0  0
   17.2081   -3.4998   -1.4406 H   0  0  0  0  0  0  0  0  0  0  0  0
   15.5232   -2.9686   -1.4343 H   0  0  0  0  0  0  0  0  0  0  0  0
   16.2029    0.4861   -2.8235 H   0  0  0  0  0  0  0  0  0  0  0  0
   16.1699    0.0759   -1.1106 H   0  0  0  0  0  0  0  0  0  0  0  0
   14.9370   -0.5695   -2.2006 H   0  0  0  0  0  0  0  0  0  0  0  0
   18.5415   -0.7969   -1.1730 H   0  0  0  0  0  0  0  0  0  0  0  0
   18.6354   -0.2984   -2.8536 H   0  0  0  0  0  0  0  0  0  0  0  0
   19.0275   -1.9619   -2.3919 H   0  0  0  0  0  0  0  0  0  0  0  0
   16.8575   -0.6474   -7.6069 H   0  0  0  0  0  0  0  0  0  0  0  0
   17.8280    1.0004   -5.6293 H   0  0  0  0  0  0  0  0  0  0  0  0
   17.2039    3.7685   -6.4812 H   0  0  0  0  0  0  0  0  0  0  0  0
   18.4694    4.4332   -4.4247 H   0  0  0  0  0  0  0  0  0  0  0  0
   18.8622    2.7388   -4.1098 H   0  0  0  0  0  0  0  0  0  0  0  0
   17.1850    3.2798   -4.0352 H   0  0  0  0  0  0  0  0  0  0  0  0
   19.8807    1.2301   -6.8267 H   0  0  0  0  0  0  0  0  0  0  0  0
   22.0044    1.6437   -7.8694 H   0  0  0  0  0  0  0  0  0  0  0  0
   22.9274    5.9603  -11.5601 H   0  0  0  0  0  0  0  0  0  0  0  0
   22.2392    6.6270  -10.0761 H   0  0  0  0  0  0  0  0  0  0  0  0
   21.5251    5.1875  -10.8296 H   0  0  0  0  0  0  0  0  0  0  0  0
   26.4321    3.8584   -9.4719 H   0  0  0  0  0  0  0  0  0  0  0  0
   21.1177    5.8392   -8.0458 H   0  0  0  0  0  0  0  0  0  0  0  0
   18.9891    5.4207   -6.9765 H   0  0  0  0  0  0  0  0  0  0  0  0
   14.4834    0.3737   -8.5615 H   0  0  0  0  0  0  0  0  0  0  0  0
   14.7272   -1.3432   -8.2306 H   0  0  0  0  0  0  0  0  0  0  0  0
   13.4339    0.7350   -6.4010 H   0  0  0  0  0  0  0  0  0  0  0  0
   12.0765   -0.6049   -7.6969 H   0  0  0  0  0  0  0  0  0  0  0  0
   14.2878   -2.0289   -5.4866 H   0  0  0  0  0  0  0  0  0  0  0  0
   14.1646   -0.5382   -4.5326 H   0  0  0  0  0  0  0  0  0  0  0  0
   18.5730   -4.4865   -6.4540 H   0  0  0  0  0  0  0  0  0  0  0  0
   19.3430   -4.8782   -4.9431 H   0  0  0  0  0  0  0  0  0  0  0  0
   20.3326   -6.4556   -6.4145 H   0  0  0  0  0  0  0  0  0  0  0  0
   18.8083   -6.8094   -7.2429 H   0  0  0  0  0  0  0  0  0  0  0  0
  1 40  1  0  0  0  0
  1 41  1  0  0  0  0
  1  2  1  0  0  0  0
  1 39  1  0  0  0  0
  2 42  1  0  0  0  0
  2 43  1  0  0  0  0
  2  3  1  0  0  0  0
  3 44  1  0  0  0  0
  3 45  1  0  0  0  0
  3  4  1  0  0  0  0
  4 38  1  0  0  0  0
  4  5  1  0  0  0  0
  5  6  2  0  0  0  0
  5  7  1  0  0  0  0
  7 46  1  0  0  0  0
  8  7  1  0  0  0  0
  8 47  1  0  0  0  0
  8  9  1  0  0  0  0
  8 13  1  0  0  0  0
  9 10  1  0  0  0  0
  9 11  1  0  0  0  0
  9 12  1  0  0  0  0
 10 48  1  0  0  0  0
 10 49  1  0  0  0  0
 10 50  1  0  0  0  0
 11 51  1  0  0  0  0
 11 52  1  0  0  0  0
 11 53  1  0  0  0  0
 12 54  1  0  0  0  0
 12 55  1  0  0  0  0
 12 56  1  0  0  0  0
 13 14  2  0  0  0  0
 13 15  1  0  0  0  0
 16 15  1  0  0  0  0
 15 37  1  0  0  0  0
 16 57  1  0  0  0  0
 16 34  1  0  0  0  0
 16 17  1  0  0  0  0
 17 18  2  0  0  0  0
 17 19  1  0  0  0  0
 19 58  1  0  0  0  0
 20 19  1  0  0  0  0
 20 59  1  0  0  0  0
 20 21  1  0  0  0  0
 20 22  1  0  0  0  0
 21 60  1  0  0  0  0
 21 61  1  0  0  0  0
 21 62  1  0  0  0  0
 22 23  1  0  0  0  0
 22 33  2  0  0  0  0
 23 63  1  0  0  0  0
 23 24  2  0  0  0  0
 24 64  1  0  0  0  0
 24 25  1  0  0  0  0
 25 32  2  0  0  0  0
 25 26  1  0  0  0  0
 26 27  2  0  0  0  0
 26 31  1  0  0  0  0
 27 28  1  0  0  0  0
 27 29  1  0  0  0  0
 28 65  1  0  0  0  0
 28 66  1  0  0  0  0
 28 67  1  0  0  0  0
 29 30  2  0  0  0  0
 30 68  1  0  0  0  0
 30 31  1  0  0  0  0
 32 69  1  0  0  0  0
 32 33  1  0  0  0  0
 33 70  1  0  0  0  0
 34 71  1  0  0  0  0
 34 72  1  0  0  0  0
 35 34  1  0  0  0  0
 35 73  1  0  0  0  0
 35 37  1  0  0  0  0
 35 36  1  0  0  0  0
 36 74  1  0  0  0  0
 37 75  1  0  0  0  0
 37 76  1  0  0  0  0
 38 77  1  0  0  0  0
 38 78  1  0  0  0  0
 38 39  1  0  0  0  0
 39 79  1  0  0  0  0
 39 80  1  0  0  0  0
M  ZZC   1 n1
M  ZZC   2 c1
M  ZZC   3 c2
M  ZZC   4 n2
M  ZZC   5 c3
M  ZZC   6 o1
M  ZZC   7 n3
M  ZZC   8 c4
M  ZZC   9 c5
M  ZZC  10 c6
M  ZZC  11 c7
M  ZZC  12 c8
M  ZZC  13 c9
M  ZZC  14 o2
M  ZZC  15 n4
M  ZZC  16 c10
M  ZZC  17 c11
M  ZZC  18 o3
M  ZZC  19 n5
M  ZZC  20 c12
M  ZZC  21 c13
M  ZZC  22 c14
M  ZZC  23 c15
M  ZZC  24 c16
M  ZZC  25 c17
M  ZZC  26 c18
M  ZZC  27 c19
M  ZZC  28 c20
M  ZZC  29 n6
M  ZZC  30 c21
M  ZZC  31 s1
M  ZZC  32 c22
M  ZZC  33 c23
M  ZZC  34 c24
M  ZZC  35 c25
M  ZZC  36 o4
M  ZZC  37 c26
M  ZZC  38 c27
M  ZZC  39 c28
M  ZZC  40 h11
M  ZZC  41 h12
M  ZZC  42 h01
M  ZZC  43 h02
M  ZZC  44 h21
M  ZZC  45 h22
M  ZZC  46 h31
M  ZZC  47 h41
M  ZZC  48 h61
M  ZZC  49 h62
M  ZZC  50 h63
M  ZZC  51 h71
M  ZZC  52 h72
M  ZZC  53 h73
M  ZZC  54 h81
M  ZZC  55 h82
M  ZZC  56 h83
M  ZZC  57 h101
M  ZZC  58 h51
M  ZZC  59 h121
M  ZZC  60 h131
M  ZZC  61 h132
M  ZZC  62 h133
M  ZZC  63 h151
M  ZZC  64 h161
M  ZZC  65 h201
M  ZZC  66 h202
M  ZZC  67 h203
M  ZZC  68 h211
M  ZZC  69 h221
M  ZZC  70 h231
M  ZZC  71 h241
M  ZZC  72 h242
M  ZZC  73 h251
M  ZZC  74 h03
M  ZZC  75 h261
M  ZZC  76 h262
M  ZZC  77 h271
M  ZZC  78 h272
M  ZZC  79 h281
M  ZZC  80 h282
M  ZZM   1 34
M  ZZI   1 231
M  ZZM   2 1
M  ZZI   2 112
M  ZZM   3 1
M  ZZI   3 112
M  ZZM   4 10
M  ZZI   4 192
M  ZZM   5 3
M  ZZI   5 121
M  ZZM   6 7
M  ZZI   6 81
M  ZZM   7 10
M  ZZI   7 211
M  ZZM   8 1
M  ZZI   8 113
M  ZZM   9 1
M  ZZI   9 110
M  ZZM  10 1
M  ZZI  10 111
M  ZZM  11 1
M  ZZI  11 111
M  ZZM  12 1
M  ZZI  12 111
M  ZZM  13 3
M  ZZI  13 121
M  ZZM  14 7
M  ZZI  14 81
M  ZZM  15 10
M  ZZI  15 192
M  ZZM  16 1
M  ZZI  16 113
M  ZZM  17 3
M  ZZI  17 121
M  ZZM  18 7
M  ZZI  18 81
M  ZZM  19 10
M  ZZI  19 211
M  ZZM  20 1
M  ZZI  20 113
M  ZZM  21 1
M  ZZI  21 111
M  ZZM  22 37
M  ZZI  22 124
M  ZZM  23 37
M  ZZI  23 125
M  ZZM  24 37
M  ZZI  24 125
M  ZZM  25 37
M  ZZI  25 124
M  ZZM  26 63
M  ZZI  26 104
M  ZZM  27 64
M  ZZI  27 105
M  ZZM  28 1
M  ZZI  28 111
M  ZZM  29 66
M  ZZI  29 222
M  ZZM  30 63
M  ZZI  30 104
M  ZZM  31 44
M  ZZI  31 248
M  ZZM  32 37
M  ZZI  32 125
M  ZZM  33 37
M  ZZI  33 125
M  ZZM  34 1
M  ZZI  34 112
M  ZZM  35 1
M  ZZI  35 113
M  ZZM  36 6
M  ZZI  36 60
M  ZZM  37 1
M  ZZI  37 112
M  ZZM  38 1
M  ZZI  38 112
M  ZZM  39 1
M  ZZI  39 112
M  ZZM  40 36
M  ZZI  40 17
M  ZZM  41 36
M  ZZI  41 17
M  ZZM  42 5
M  ZZI  42 1
M  ZZM  43 5
M  ZZI  43 1
M  ZZM  44 5
M  ZZI  44 1
M  ZZM  45 5
M  ZZI  45 1
M  ZZM  46 28
M  ZZI  46 11
M  ZZM  47 5
M  ZZI  47 1
M  ZZM  48 5
M  ZZI  48 1
M  ZZM  49 5
M  ZZI  49 1
M  ZZM  50 5
M  ZZI  50 1
M  ZZM  51 5
M  ZZI  51 1
M  ZZM  52 5
M  ZZI  52 1
M  ZZM  53 5
M  ZZI  53 1
M  ZZM  54 5
M  ZZI  54 1
M  ZZM  55 5
M  ZZI  55 1
M  ZZM  56 5
M  ZZI  56 1
M  ZZM  57 5
M  ZZI  57 1
M  ZZM  58 28
M  ZZI  58 11
M  ZZM  59 5
M  ZZI  59 1
M  ZZM  60 5
M  ZZI  60 1
M  ZZM  61 5
M  ZZI  61 1
M  ZZM  62 5
M  ZZI  62 1
M  ZZM  63 5
M  ZZI  63 1
M  ZZM  64 5
M  ZZI  64 1
M  ZZM  65 5
M  ZZI  65 1
M  ZZM  66 5
M  ZZI  66 1
M  ZZM  67 5
M  ZZI  67 1
M  ZZM  68 5
M  ZZI  68 1
M  ZZM  69 5
M  ZZI  69 1
M  ZZM  70 5
M  ZZI  70 1
M  ZZM  71 5
M  ZZI  71 1
M  ZZM  72 5
M  ZZI  72 1
M  ZZM  73 5
M  ZZI  73 1
M  ZZM  74 21
M  ZZI  74 20
M  ZZM  75 5
M  ZZI  75 1
M  ZZM  76 5
M  ZZI  76 1
M  ZZM  77 5
M  ZZI  77 1
M  ZZM  78 5
M  ZZI  78 1
M  ZZM  79 5
M  ZZI  79 1
M  ZZM  80 5
M  ZZI  80 1
M  CHG  1   1   1
M  END
> <IX>
1

> <NAME>
VHL_5T8E_48.pdb

> <Score>
-10.995347

> <Natom>
80

> <Nflex>
10

> <Hbond>
-6.877482

> <Hphob>
-6.627613

> <VwInt>
-24.79501

> <Dsolv>
16.273172

> <SolEl>
17.978341

> <Eintl>
9.282683

> <RecConf>
ND

> <projPath>
VHL_maps/

> <NAME_>
VHL_5T8E_48.pdb

$$$$
