VHL_4QNQ_10.pdb
  MOLSOFT 04032206403D

 68 70  0  0  1  0  0  0  0  0999 V2000
   18.4142   -6.9548   -5.3639 C   0  0  0  0  0  0  0  0  0  0  0  0
   17.2291   -6.0295   -5.3192 C   0  0  0  0  0  0  0  0  0  0  0  0
   16.1302   -6.4028   -5.6974 O   0  0  0  0  0  0  0  0  0  0  0  0
   17.5152   -4.7808   -4.7997 N   0  0  0  0  0  0  0  0  0  0  0  0
   16.5321   -3.6988   -4.6883 C   0  0  1  0  0  0  0  0  0  0  0  0
   15.8938   -3.5843   -3.2647 C   0  0  0  0  0  0  0  0  0  0  0  0
   14.6519   -2.6799   -3.3076 C   0  0  0  0  0  0  0  0  0  0  0  0
   16.8762   -3.0066   -2.2333 C   0  0  0  0  0  0  0  0  0  0  0  0
   15.4341   -4.9583   -2.7532 C   0  0  0  0  0  0  0  0  0  0  0  0
   17.2187   -2.3967   -5.1437 C   0  0  0  0  0  0  0  0  0  0  0  0
   18.3636   -2.1332   -4.8057 O   0  0  0  0  0  0  0  0  0  0  0  0
   16.4761   -1.4823   -5.8918 N   0  0  0  0  0  0  0  0  0  0  0  0
   17.0122   -0.1610   -6.1966 C   0  0  2  0  0  0  0  0  0  0  0  0
   17.1063    0.7695   -4.9938 C   0  0  0  0  0  0  0  0  0  0  0  0
   16.3943    0.6692   -4.0038 O   0  0  0  0  0  0  0  0  0  0  0  0
   18.0083    1.7950   -5.2054 N   0  0  0  0  0  0  0  0  0  0  0  0
   18.0421    2.9764   -4.3664 C   0  0  1  0  0  0  0  0  0  0  0  0
   19.4767    3.4654   -4.1801 C   0  0  0  0  0  0  0  0  0  0  0  0
   17.1343    4.0346   -4.9616 C   0  0  0  0  0  0  0  0  0  0  0  0
   17.4165    4.6438   -6.1848 C   0  0  0  0  0  0  0  0  0  0  0  0
   16.5687    5.5997   -6.7177 C   0  0  0  0  0  0  0  0  0  0  0  0
   15.4120    5.9771   -6.0455 C   0  0  0  0  0  0  0  0  0  0  0  0
   14.5616    7.0315   -6.5784 C   0  0  0  0  0  0  0  0  0  0  0  0
   13.8988    7.1488   -7.7942 C   0  0  0  0  0  0  0  0  0  0  0  0
   13.8479    6.1474   -8.8836 C   0  0  0  0  0  0  0  0  0  0  0  0
   13.2280    8.3414   -7.9787 N   0  0  0  0  0  0  0  0  0  0  0  0
   13.3813    9.0993   -6.9162 C   0  0  0  0  0  0  0  0  0  0  0  0
   14.2945    8.4449   -5.6372 S   0  0  0  0  0  0  0  0  0  0  0  0
   15.1097    5.3500   -4.8413 C   0  0  0  0  0  0  0  0  0  0  0  0
   15.9568    4.3926   -4.3104 C   0  0  0  0  0  0  0  0  0  0  0  0
   16.0385    0.4526   -7.1974 C   0  0  0  0  0  0  0  0  0  0  0  0
   15.3916   -0.7486   -7.8484 C   0  0  1  0  0  0  0  0  0  0  0  0
   16.2007   -1.2054   -8.9411 O   0  0  0  0  0  0  0  0  0  0  0  0
   15.3387   -1.7864   -6.7355 C   0  0  0  0  0  0  0  0  0  0  0  0
   19.3558   -6.4113   -5.2448 H   0  0  0  0  0  0  0  0  0  0  0  0
   18.4333   -7.4655   -6.3304 H   0  0  0  0  0  0  0  0  0  0  0  0
   18.3170   -7.6943   -4.5657 H   0  0  0  0  0  0  0  0  0  0  0  0
   18.4631   -4.5900   -4.4975 H   0  0  0  0  0  0  0  0  0  0  0  0
   15.7561   -3.9402   -5.4011 H   0  0  0  0  0  0  0  0  0  0  0  0
   14.9000   -1.6522   -3.5838 H   0  0  0  0  0  0  0  0  0  0  0  0
   14.1568   -2.6330   -2.3321 H   0  0  0  0  0  0  0  0  0  0  0  0
   13.9136   -3.0490   -4.0263 H   0  0  0  0  0  0  0  0  0  0  0  0
   16.4495   -3.0212   -1.2250 H   0  0  0  0  0  0  0  0  0  0  0  0
   17.1372   -1.9665   -2.4500 H   0  0  0  0  0  0  0  0  0  0  0  0
   17.8049   -3.5794   -2.1983 H   0  0  0  0  0  0  0  0  0  0  0  0
   14.9389   -4.8805   -1.7803 H   0  0  0  0  0  0  0  0  0  0  0  0
   16.2696   -5.6519   -2.6265 H   0  0  0  0  0  0  0  0  0  0  0  0
   14.7195   -5.4160   -3.4391 H   0  0  0  0  0  0  0  0  0  0  0  0
   18.0066   -0.2873   -6.6290 H   0  0  0  0  0  0  0  0  0  0  0  0
   18.5665    1.8000   -6.0524 H   0  0  0  0  0  0  0  0  0  0  0  0
   17.6610    2.6976   -3.3777 H   0  0  0  0  0  0  0  0  0  0  0  0
   20.0772    2.7033   -3.6741 H   0  0  0  0  0  0  0  0  0  0  0  0
   19.5104    4.3771   -3.5754 H   0  0  0  0  0  0  0  0  0  0  0  0
   19.9692    3.6765   -5.1349 H   0  0  0  0  0  0  0  0  0  0  0  0
   18.3119    4.3792   -6.7391 H   0  0  0  0  0  0  0  0  0  0  0  0
   16.8339    6.0701   -7.6603 H   0  0  0  0  0  0  0  0  0  0  0  0
   14.8107    6.0865   -9.3988 H   0  0  0  0  0  0  0  0  0  0  0  0
   13.0883    6.4119   -9.6246 H   0  0  0  0  0  0  0  0  0  0  0  0
   13.6002    5.1550   -8.4953 H   0  0  0  0  0  0  0  0  0  0  0  0
   12.9600   10.0886   -6.8383 H   0  0  0  0  0  0  0  0  0  0  0  0
   14.2031    5.6048   -4.2996 H   0  0  0  0  0  0  0  0  0  0  0  0
   15.6861    3.9215   -3.3696 H   0  0  0  0  0  0  0  0  0  0  0  0
   15.2759    1.0520   -6.6862 H   0  0  0  0  0  0  0  0  0  0  0  0
   16.5525    1.1014   -7.9146 H   0  0  0  0  0  0  0  0  0  0  0  0
   14.3989   -0.5151   -8.2329 H   0  0  0  0  0  0  0  0  0  0  0  0
   17.1329   -1.1383   -8.6627 H   0  0  0  0  0  0  0  0  0  0  0  0
   15.4094   -2.8045   -7.1254 H   0  0  0  0  0  0  0  0  0  0  0  0
   14.4357   -1.6735   -6.1275 H   0  0  0  0  0  0  0  0  0  0  0  0
  1 35  1  0  0  0  0
  1 36  1  0  0  0  0
  1 37  1  0  0  0  0
  1  2  1  0  0  0  0
  2  3  2  0  0  0  0
  2  4  1  0  0  0  0
  4 38  1  0  0  0  0
  5  4  1  0  0  0  0
  5 39  1  0  0  0  0
  5  6  1  0  0  0  0
  5 10  1  0  0  0  0
  6  7  1  0  0  0  0
  6  8  1  0  0  0  0
  6  9  1  0  0  0  0
  7 40  1  0  0  0  0
  7 41  1  0  0  0  0
  7 42  1  0  0  0  0
  8 43  1  0  0  0  0
  8 44  1  0  0  0  0
  8 45  1  0  0  0  0
  9 46  1  0  0  0  0
  9 47  1  0  0  0  0
  9 48  1  0  0  0  0
 10 11  2  0  0  0  0
 10 12  1  0  0  0  0
 12 34  1  0  0  0  0
 13 12  1  0  0  0  0
 13 31  1  0  0  0  0
 13 49  1  0  0  0  0
 13 14  1  0  0  0  0
 14 15  2  0  0  0  0
 14 16  1  0  0  0  0
 16 50  1  0  0  0  0
 17 16  1  0  0  0  0
 17 51  1  0  0  0  0
 17 18  1  0  0  0  0
 17 19  1  0  0  0  0
 18 52  1  0  0  0  0
 18 53  1  0  0  0  0
 18 54  1  0  0  0  0
 19 20  1  0  0  0  0
 19 30  2  0  0  0  0
 20 55  1  0  0  0  0
 20 21  2  0  0  0  0
 21 56  1  0  0  0  0
 21 22  1  0  0  0  0
 22 29  2  0  0  0  0
 22 23  1  0  0  0  0
 23 24  2  0  0  0  0
 23 28  1  0  0  0  0
 24 25  1  0  0  0  0
 24 26  1  0  0  0  0
 25 57  1  0  0  0  0
 25 58  1  0  0  0  0
 25 59  1  0  0  0  0
 26 27  2  0  0  0  0
 27 60  1  0  0  0  0
 27 28  1  0  0  0  0
 29 61  1  0  0  0  0
 29 30  1  0  0  0  0
 30 62  1  0  0  0  0
 32 31  1  0  0  0  0
 31 63  1  0  0  0  0
 31 64  1  0  0  0  0
 32 34  1  0  0  0  0
 32 65  1  0  0  0  0
 32 33  1  0  0  0  0
 33 66  1  0  0  0  0
 34 67  1  0  0  0  0
 34 68  1  0  0  0  0
M  ZZC   1 c1
M  ZZC   2 c2
M  ZZC   3 o1
M  ZZC   4 n1
M  ZZC   5 c3
M  ZZC   6 c4
M  ZZC   7 c5
M  ZZC   8 c6
M  ZZC   9 c7
M  ZZC  10 c8
M  ZZC  11 o2
M  ZZC  12 n2
M  ZZC  13 c9
M  ZZC  14 c10
M  ZZC  15 o3
M  ZZC  16 n3
M  ZZC  17 c11
M  ZZC  18 c12
M  ZZC  19 c13
M  ZZC  20 c14
M  ZZC  21 c15
M  ZZC  22 c16
M  ZZC  23 c17
M  ZZC  24 c18
M  ZZC  25 c19
M  ZZC  26 n4
M  ZZC  27 c20
M  ZZC  28 s1
M  ZZC  29 c21
M  ZZC  30 c22
M  ZZC  31 c23
M  ZZC  32 c24
M  ZZC  33 o4
M  ZZC  34 c25
M  ZZC  35 h11
M  ZZC  36 h12
M  ZZC  37 h13
M  ZZC  38 h01
M  ZZC  39 h31
M  ZZC  40 h51
M  ZZC  41 h52
M  ZZC  42 h53
M  ZZC  43 h61
M  ZZC  44 h62
M  ZZC  45 h63
M  ZZC  46 h71
M  ZZC  47 h72
M  ZZC  48 h73
M  ZZC  49 h91
M  ZZC  50 h02
M  ZZC  51 h111
M  ZZC  52 h121
M  ZZC  53 h122
M  ZZC  54 h123
M  ZZC  55 h141
M  ZZC  56 h151
M  ZZC  57 h191
M  ZZC  58 h192
M  ZZC  59 h193
M  ZZC  60 h201
M  ZZC  61 h211
M  ZZC  62 h221
M  ZZC  63 h231
M  ZZC  64 h232
M  ZZC  65 h241
M  ZZC  66 h41
M  ZZC  67 h251
M  ZZC  68 h252
M  ZZM   1 1
M  ZZI   1 111
M  ZZM   2 3
M  ZZI   2 121
M  ZZM   3 7
M  ZZI   3 81
M  ZZM   4 10
M  ZZI   4 211
M  ZZM   5 1
M  ZZI   5 113
M  ZZM   6 1
M  ZZI   6 110
M  ZZM   7 1
M  ZZI   7 111
M  ZZM   8 1
M  ZZI   8 111
M  ZZM   9 1
M  ZZI   9 111
M  ZZM  10 3
M  ZZI  10 121
M  ZZM  11 7
M  ZZI  11 81
M  ZZM  12 10
M  ZZI  12 192
M  ZZM  13 1
M  ZZI  13 113
M  ZZM  14 3
M  ZZI  14 121
M  ZZM  15 7
M  ZZI  15 81
M  ZZM  16 10
M  ZZI  16 211
M  ZZM  17 1
M  ZZI  17 113
M  ZZM  18 1
M  ZZI  18 111
M  ZZM  19 37
M  ZZI  19 124
M  ZZM  20 37
M  ZZI  20 125
M  ZZM  21 37
M  ZZI  21 125
M  ZZM  22 37
M  ZZI  22 124
M  ZZM  23 63
M  ZZI  23 104
M  ZZM  24 64
M  ZZI  24 105
M  ZZM  25 1
M  ZZI  25 111
M  ZZM  26 66
M  ZZI  26 222
M  ZZM  27 63
M  ZZI  27 104
M  ZZM  28 44
M  ZZI  28 248
M  ZZM  29 37
M  ZZI  29 125
M  ZZM  30 37
M  ZZI  30 125
M  ZZM  31 1
M  ZZI  31 112
M  ZZM  32 1
M  ZZI  32 113
M  ZZM  33 6
M  ZZI  33 60
M  ZZM  34 1
M  ZZI  34 112
M  ZZM  35 5
M  ZZI  35 1
M  ZZM  36 5
M  ZZI  36 1
M  ZZM  37 5
M  ZZI  37 1
M  ZZM  38 28
M  ZZI  38 11
M  ZZM  39 5
M  ZZI  39 1
M  ZZM  40 5
M  ZZI  40 1
M  ZZM  41 5
M  ZZI  41 1
M  ZZM  42 5
M  ZZI  42 1
M  ZZM  43 5
M  ZZI  43 1
M  ZZM  44 5
M  ZZI  44 1
M  ZZM  45 5
M  ZZI  45 1
M  ZZM  46 5
M  ZZI  46 1
M  ZZM  47 5
M  ZZI  47 1
M  ZZM  48 5
M  ZZI  48 1
M  ZZM  49 5
M  ZZI  49 1
M  ZZM  50 28
M  ZZI  50 11
M  ZZM  51 5
M  ZZI  51 1
M  ZZM  52 5
M  ZZI  52 1
M  ZZM  53 5
M  ZZI  53 1
M  ZZM  54 5
M  ZZI  54 1
M  ZZM  55 5
M  ZZI  55 1
M  ZZM  56 5
M  ZZI  56 1
M  ZZM  57 5
M  ZZI  57 1
M  ZZM  58 5
M  ZZI  58 1
M  ZZM  59 5
M  ZZI  59 1
M  ZZM  60 5
M  ZZI  60 1
M  ZZM  61 5
M  ZZI  61 1
M  ZZM  62 5
M  ZZI  62 1
M  ZZM  63 5
M  ZZI  63 1
M  ZZM  64 5
M  ZZI  64 1
M  ZZM  65 5
M  ZZI  65 1
M  ZZM  66 21
M  ZZI  66 20
M  ZZM  67 5
M  ZZI  67 1
M  ZZM  68 5
M  ZZI  68 1
M  END
> <IX>
1

> <NAME>
VHL_4QNQ_10.pdb

> <Score>
-22.059341

> <Natom>
68

> <Nflex>
8

> <Hbond>
-7.984279

> <Hphob>
-6.334147

> <VwInt>
-30.937125

> <Dsolv>
22.222772

> <SolEl>
12.637472

> <Eintl>
5.856795

> <RecConf>
ND

> <projPath>
VHL_maps/

> <NAME_>
VHL_4QNQ_10.pdb

$$$$
