VHL_5T8E_41.pdb
  MOLSOFT 04032206433D

 68 70  0  0  1  0  0  0  0  0999 V2000
   19.3620   -6.7722   -5.9723 C   0  0  0  0  0  0  0  0  0  0  0  0
   18.1243   -7.1436   -5.1725 C   0  0  0  0  0  0  0  0  0  0  0  0
   17.0435   -6.0951   -5.2527 C   0  0  0  0  0  0  0  0  0  0  0  0
   15.9483   -6.3694   -5.7141 O   0  0  0  0  0  0  0  0  0  0  0  0
   17.3936   -4.8712   -4.7108 N   0  0  0  0  0  0  0  0  0  0  0  0
   16.4731   -3.7334   -4.6141 C   0  0  1  0  0  0  0  0  0  0  0  0
   15.8525   -3.5811   -3.1868 C   0  0  0  0  0  0  0  0  0  0  0  0
   14.6386   -2.6392   -3.2254 C   0  0  0  0  0  0  0  0  0  0  0  0
   16.8642   -3.0305   -2.1692 C   0  0  0  0  0  0  0  0  0  0  0  0
   15.3520   -4.9358   -2.6611 C   0  0  0  0  0  0  0  0  0  0  0  0
   17.2134   -2.4690   -5.0961 C   0  0  0  0  0  0  0  0  0  0  0  0
   18.3768   -2.2580   -4.7861 O   0  0  0  0  0  0  0  0  0  0  0  0
   16.4882   -1.5208   -5.8221 N   0  0  0  0  0  0  0  0  0  0  0  0
   17.0425   -0.1983   -6.1092 C   0  0  2  0  0  0  0  0  0  0  0  0
   17.2243    0.6507   -4.8430 C   0  0  0  0  0  0  0  0  0  0  0  0
   16.6776    0.3837   -3.7834 O   0  0  0  0  0  0  0  0  0  0  0  0
   18.0210    1.7793   -4.9247 N   0  0  0  0  0  0  0  0  0  0  0  0
   18.6393    2.3795   -6.0959 C   0  0  0  0  0  0  0  0  0  0  0  0
   17.8887    3.5867   -6.6083 C   0  0  0  0  0  0  0  0  0  0  0  0
   18.4878    4.4218   -7.5456 C   0  0  0  0  0  0  0  0  0  0  0  0
   17.8256    5.5346   -8.0397 C   0  0  0  0  0  0  0  0  0  0  0  0
   16.5365    5.8490   -7.6147 C   0  0  0  0  0  0  0  0  0  0  0  0
   15.8305    7.0292   -8.1051 C   0  0  0  0  0  0  0  0  0  0  0  0
   14.5223    7.1907   -8.5490 C   0  0  0  0  0  0  0  0  0  0  0  0
   13.4823    6.1470   -8.6951 C   0  0  0  0  0  0  0  0  0  0  0  0
   14.1746    8.4811   -8.8862 N   0  0  0  0  0  0  0  0  0  0  0  0
   15.2090    9.2758   -8.7321 C   0  0  0  0  0  0  0  0  0  0  0  0
   16.6370    8.5504   -8.1515 S   0  0  0  0  0  0  0  0  0  0  0  0
   15.9330    5.0072   -6.6888 C   0  0  0  0  0  0  0  0  0  0  0  0
   16.5946    3.8986   -6.1958 C   0  0  0  0  0  0  0  0  0  0  0  0
   16.0346    0.4467   -7.0584 C   0  0  0  0  0  0  0  0  0  0  0  0
   15.3744   -0.7306   -7.7435 C   0  0  1  0  0  0  0  0  0  0  0  0
   16.1604   -1.1565   -8.8675 O   0  0  0  0  0  0  0  0  0  0  0  0
   15.3411   -1.8008   -6.6626 C   0  0  0  0  0  0  0  0  0  0  0  0
   19.8019   -5.8305   -5.6354 H   0  0  0  0  0  0  0  0  0  0  0  0
   19.1201   -6.6549   -7.0312 H   0  0  0  0  0  0  0  0  0  0  0  0
   20.1208   -7.5537   -5.8761 H   0  0  0  0  0  0  0  0  0  0  0  0
   17.7155   -8.0892   -5.5427 H   0  0  0  0  0  0  0  0  0  0  0  0
   18.3699   -7.2897   -4.1203 H   0  0  0  0  0  0  0  0  0  0  0  0
   18.3326   -4.7533   -4.3484 H   0  0  0  0  0  0  0  0  0  0  0  0
   15.6711   -3.9405   -5.3092 H   0  0  0  0  0  0  0  0  0  0  0  0
   14.9262   -1.6274   -3.5295 H   0  0  0  0  0  0  0  0  0  0  0  0
   14.1650   -2.5577   -2.2419 H   0  0  0  0  0  0  0  0  0  0  0  0
   13.8776   -2.9751   -3.9330 H   0  0  0  0  0  0  0  0  0  0  0  0
   16.4439   -3.0143   -1.1583 H   0  0  0  0  0  0  0  0  0  0  0  0
   17.1671   -2.0058   -2.4015 H   0  0  0  0  0  0  0  0  0  0  0  0
   17.7691   -3.6398   -2.1322 H   0  0  0  0  0  0  0  0  0  0  0  0
   14.8645   -4.8331   -1.6870 H   0  0  0  0  0  0  0  0  0  0  0  0
   16.1656   -5.6543   -2.5308 H   0  0  0  0  0  0  0  0  0  0  0  0
   14.6202   -5.3779   -3.3399 H   0  0  0  0  0  0  0  0  0  0  0  0
   18.0140   -0.3490   -6.5803 H   0  0  0  0  0  0  0  0  0  0  0  0
   18.1190    2.2816   -4.0495 H   0  0  0  0  0  0  0  0  0  0  0  0
   19.6441    2.6840   -5.7853 H   0  0  0  0  0  0  0  0  0  0  0  0
   18.7442    1.6428   -6.8955 H   0  0  0  0  0  0  0  0  0  0  0  0
   19.4929    4.2106   -7.8998 H   0  0  0  0  0  0  0  0  0  0  0  0
   18.3318    6.1564   -8.7730 H   0  0  0  0  0  0  0  0  0  0  0  0
   12.7270    6.4299   -9.4342 H   0  0  0  0  0  0  0  0  0  0  0  0
   12.9652    5.9794   -7.7466 H   0  0  0  0  0  0  0  0  0  0  0  0
   13.9336    5.1997   -8.9999 H   0  0  0  0  0  0  0  0  0  0  0  0
   15.1699   10.3318   -8.9563 H   0  0  0  0  0  0  0  0  0  0  0  0
   14.9335    5.2182   -6.3197 H   0  0  0  0  0  0  0  0  0  0  0  0
   16.0748    3.2827   -5.4692 H   0  0  0  0  0  0  0  0  0  0  0  0
   15.2846    1.0167   -6.4983 H   0  0  0  0  0  0  0  0  0  0  0  0
   16.5155    1.1216   -7.7729 H   0  0  0  0  0  0  0  0  0  0  0  0
   14.3733   -0.4871   -8.1033 H   0  0  0  0  0  0  0  0  0  0  0  0
   17.0994   -1.0928   -8.6119 H   0  0  0  0  0  0  0  0  0  0  0  0
   15.4130   -2.8068   -7.0837 H   0  0  0  0  0  0  0  0  0  0  0  0
   14.4439   -1.7119   -6.0423 H   0  0  0  0  0  0  0  0  0  0  0  0
  1 35  1  0  0  0  0
  1 36  1  0  0  0  0
  1 37  1  0  0  0  0
  1  2  1  0  0  0  0
  2 38  1  0  0  0  0
  2 39  1  0  0  0  0
  2  3  1  0  0  0  0
  3  4  2  0  0  0  0
  3  5  1  0  0  0  0
  5 40  1  0  0  0  0
  6  5  1  0  0  0  0
  6 41  1  0  0  0  0
  6  7  1  0  0  0  0
  6 11  1  0  0  0  0
  7  8  1  0  0  0  0
  7  9  1  0  0  0  0
  7 10  1  0  0  0  0
  8 42  1  0  0  0  0
  8 43  1  0  0  0  0
  8 44  1  0  0  0  0
  9 45  1  0  0  0  0
  9 46  1  0  0  0  0
  9 47  1  0  0  0  0
 10 48  1  0  0  0  0
 10 49  1  0  0  0  0
 10 50  1  0  0  0  0
 11 12  2  0  0  0  0
 11 13  1  0  0  0  0
 14 13  1  0  0  0  0
 13 34  1  0  0  0  0
 14 51  1  0  0  0  0
 14 31  1  0  0  0  0
 14 15  1  0  0  0  0
 15 16  2  0  0  0  0
 15 17  1  0  0  0  0
 17 52  1  0  0  0  0
 17 18  1  0  0  0  0
 18 53  1  0  0  0  0
 18 54  1  0  0  0  0
 18 19  1  0  0  0  0
 19 20  1  0  0  0  0
 19 30  2  0  0  0  0
 20 55  1  0  0  0  0
 20 21  2  0  0  0  0
 21 56  1  0  0  0  0
 21 22  1  0  0  0  0
 22 29  2  0  0  0  0
 22 23  1  0  0  0  0
 23 24  2  0  0  0  0
 23 28  1  0  0  0  0
 24 25  1  0  0  0  0
 24 26  1  0  0  0  0
 25 57  1  0  0  0  0
 25 58  1  0  0  0  0
 25 59  1  0  0  0  0
 26 27  2  0  0  0  0
 27 60  1  0  0  0  0
 27 28  1  0  0  0  0
 29 61  1  0  0  0  0
 29 30  1  0  0  0  0
 30 62  1  0  0  0  0
 31 63  1  0  0  0  0
 31 64  1  0  0  0  0
 32 31  1  0  0  0  0
 32 65  1  0  0  0  0
 32 34  1  0  0  0  0
 32 33  1  0  0  0  0
 33 66  1  0  0  0  0
 34 67  1  0  0  0  0
 34 68  1  0  0  0  0
M  ZZC   1 c1
M  ZZC   2 c2
M  ZZC   3 c3
M  ZZC   4 o1
M  ZZC   5 n1
M  ZZC   6 c4
M  ZZC   7 c5
M  ZZC   8 c6
M  ZZC   9 c7
M  ZZC  10 c8
M  ZZC  11 c9
M  ZZC  12 o2
M  ZZC  13 n2
M  ZZC  14 c10
M  ZZC  15 c11
M  ZZC  16 o3
M  ZZC  17 n3
M  ZZC  18 c12
M  ZZC  19 c13
M  ZZC  20 c14
M  ZZC  21 c15
M  ZZC  22 c16
M  ZZC  23 c17
M  ZZC  24 c18
M  ZZC  25 c19
M  ZZC  26 n4
M  ZZC  27 c20
M  ZZC  28 s1
M  ZZC  29 c21
M  ZZC  30 c22
M  ZZC  31 c23
M  ZZC  32 c24
M  ZZC  33 o4
M  ZZC  34 c25
M  ZZC  35 h11
M  ZZC  36 h12
M  ZZC  37 h13
M  ZZC  38 h21
M  ZZC  39 h22
M  ZZC  40 h01
M  ZZC  41 h41
M  ZZC  42 h61
M  ZZC  43 h62
M  ZZC  44 h63
M  ZZC  45 h71
M  ZZC  46 h72
M  ZZC  47 h73
M  ZZC  48 h81
M  ZZC  49 h82
M  ZZC  50 h83
M  ZZC  51 h101
M  ZZC  52 h31
M  ZZC  53 h121
M  ZZC  54 h122
M  ZZC  55 h141
M  ZZC  56 h151
M  ZZC  57 h191
M  ZZC  58 h192
M  ZZC  59 h193
M  ZZC  60 h201
M  ZZC  61 h211
M  ZZC  62 h221
M  ZZC  63 h231
M  ZZC  64 h232
M  ZZC  65 h241
M  ZZC  66 h02
M  ZZC  67 h251
M  ZZC  68 h252
M  ZZM   1 1
M  ZZI   1 111
M  ZZM   2 1
M  ZZI   2 112
M  ZZM   3 3
M  ZZI   3 121
M  ZZM   4 7
M  ZZI   4 81
M  ZZM   5 10
M  ZZI   5 211
M  ZZM   6 1
M  ZZI   6 113
M  ZZM   7 1
M  ZZI   7 110
M  ZZM   8 1
M  ZZI   8 111
M  ZZM   9 1
M  ZZI   9 111
M  ZZM  10 1
M  ZZI  10 111
M  ZZM  11 3
M  ZZI  11 121
M  ZZM  12 7
M  ZZI  12 81
M  ZZM  13 10
M  ZZI  13 192
M  ZZM  14 1
M  ZZI  14 113
M  ZZM  15 3
M  ZZI  15 121
M  ZZM  16 7
M  ZZI  16 81
M  ZZM  17 10
M  ZZI  17 211
M  ZZM  18 1
M  ZZI  18 112
M  ZZM  19 37
M  ZZI  19 124
M  ZZM  20 37
M  ZZI  20 125
M  ZZM  21 37
M  ZZI  21 125
M  ZZM  22 37
M  ZZI  22 124
M  ZZM  23 63
M  ZZI  23 104
M  ZZM  24 64
M  ZZI  24 105
M  ZZM  25 1
M  ZZI  25 111
M  ZZM  26 66
M  ZZI  26 222
M  ZZM  27 63
M  ZZI  27 104
M  ZZM  28 44
M  ZZI  28 248
M  ZZM  29 37
M  ZZI  29 125
M  ZZM  30 37
M  ZZI  30 125
M  ZZM  31 1
M  ZZI  31 112
M  ZZM  32 1
M  ZZI  32 113
M  ZZM  33 6
M  ZZI  33 60
M  ZZM  34 1
M  ZZI  34 112
M  ZZM  35 5
M  ZZI  35 1
M  ZZM  36 5
M  ZZI  36 1
M  ZZM  37 5
M  ZZI  37 1
M  ZZM  38 5
M  ZZI  38 1
M  ZZM  39 5
M  ZZI  39 1
M  ZZM  40 28
M  ZZI  40 11
M  ZZM  41 5
M  ZZI  41 1
M  ZZM  42 5
M  ZZI  42 1
M  ZZM  43 5
M  ZZI  43 1
M  ZZM  44 5
M  ZZI  44 1
M  ZZM  45 5
M  ZZI  45 1
M  ZZM  46 5
M  ZZI  46 1
M  ZZM  47 5
M  ZZI  47 1
M  ZZM  48 5
M  ZZI  48 1
M  ZZM  49 5
M  ZZI  49 1
M  ZZM  50 5
M  ZZI  50 1
M  ZZM  51 5
M  ZZI  51 1
M  ZZM  52 28
M  ZZI  52 11
M  ZZM  53 5
M  ZZI  53 1
M  ZZM  54 5
M  ZZI  54 1
M  ZZM  55 5
M  ZZI  55 1
M  ZZM  56 5
M  ZZI  56 1
M  ZZM  57 5
M  ZZI  57 1
M  ZZM  58 5
M  ZZI  58 1
M  ZZM  59 5
M  ZZI  59 1
M  ZZM  60 5
M  ZZI  60 1
M  ZZM  61 5
M  ZZI  61 1
M  ZZM  62 5
M  ZZI  62 1
M  ZZM  63 5
M  ZZI  63 1
M  ZZM  64 5
M  ZZI  64 1
M  ZZM  65 5
M  ZZI  65 1
M  ZZM  66 21
M  ZZI  66 20
M  ZZM  67 5
M  ZZI  67 1
M  ZZM  68 5
M  ZZI  68 1
M  END
> <IX>
1

> <NAME>
VHL_5T8E_41.pdb

> <Score>
-22.691402

> <Natom>
68

> <Nflex>
9

> <Hbond>
-7.528291

> <Hphob>
-6.723289

> <VwInt>
-32.737374

> <Dsolv>
19.632416

> <SolEl>
11.226247

> <Eintl>
10.105864

> <RecConf>
ND

> <projPath>
VHL_maps/

> <NAME_>
VHL_5T8E_41.pdb

$$$$
