VHL_4LY1_3.pdb
  MOLSOFT 04032206393D

 65 67  0  0  1  0  0  0  0  0999 V2000
   15.8121   -6.2669   -5.4817 O   0  0  0  0  0  0  0  0  0  0  0  0
   16.8843   -5.9469   -4.9986 C   0  0  0  0  0  0  0  0  0  0  0  0
   17.1179   -4.7920   -4.2780 N   0  0  0  0  0  0  0  0  0  0  0  0
   16.1209   -3.7378   -4.0261 C   0  0  1  0  0  0  0  0  0  0  0  0
   15.8486   -3.5447   -2.5059 C   0  0  0  0  0  0  0  0  0  0  0  0
   15.3572   -4.8830   -1.9485 C   0  0  0  0  0  0  0  0  0  0  0  0
   17.0991   -3.0949   -1.7371 C   0  0  0  0  0  0  0  0  0  0  0  0
   14.7465   -2.5192   -2.2181 C   0  0  0  0  0  0  0  0  0  0  0  0
   16.6655   -2.5118   -4.7795 C   0  0  0  0  0  0  0  0  0  0  0  0
   17.8682   -2.2786   -4.8100 O   0  0  0  0  0  0  0  0  0  0  0  0
   15.7536   -1.6966   -5.4532 N   0  0  0  0  0  0  0  0  0  0  0  0
   16.2189   -0.7430   -6.4432 C   0  0  2  0  0  0  0  0  0  0  0  0
   16.7260    0.5348   -5.7747 C   0  0  0  0  0  0  0  0  0  0  0  0
   16.2512    0.9740   -4.7356 O   0  0  0  0  0  0  0  0  0  0  0  0
   17.7366    1.1562   -6.4847 N   0  0  0  0  0  0  0  0  0  0  0  0
   18.3771    2.3707   -6.0240 C   0  0  0  0  0  0  0  0  0  0  0  0
   17.7093    3.6062   -6.5688 C   0  0  0  0  0  0  0  0  0  0  0  0
   18.3165    4.3747   -7.5565 C   0  0  0  0  0  0  0  0  0  0  0  0
   17.6930    5.5072   -8.0549 C   0  0  0  0  0  0  0  0  0  0  0  0
   16.4446    5.9019   -7.5795 C   0  0  0  0  0  0  0  0  0  0  0  0
   15.7735    7.0914   -8.0873 C   0  0  0  0  0  0  0  0  0  0  0  0
   14.4708    7.2730   -8.5345 C   0  0  0  0  0  0  0  0  0  0  0  0
   13.4112    6.2467   -8.6585 C   0  0  0  0  0  0  0  0  0  0  0  0
   14.1539    8.5635   -8.8963 N   0  0  0  0  0  0  0  0  0  0  0  0
   15.2083    9.3356   -8.7611 C   0  0  0  0  0  0  0  0  0  0  0  0
   16.6187    8.5892   -8.1641 S   0  0  0  0  0  0  0  0  0  0  0  0
   15.8399    5.1307   -6.5947 C   0  0  0  0  0  0  0  0  0  0  0  0
   16.4642    4.0048   -6.0952 C   0  0  0  0  0  0  0  0  0  0  0  0
   15.0050   -0.4958   -7.3251 C   0  0  0  0  0  0  0  0  0  0  0  0
   13.8216   -0.6656   -6.3835 C   0  0  1  0  0  0  0  0  0  0  0  0
   12.6822   -1.2024   -7.0521 O   0  0  0  0  0  0  0  0  0  0  0  0
   14.3074   -1.6506   -5.3333 C   0  0  0  0  0  0  0  0  0  0  0  0
   18.0923   -6.8322   -5.1266 C   0  0  0  0  0  0  0  0  0  0  0  0
   18.0751   -4.6009   -4.0043 H   0  0  0  0  0  0  0  0  0  0  0  0
   15.1915   -4.0566   -4.4971 H   0  0  0  0  0  0  0  0  0  0  0  0
   14.4660   -5.2369   -2.4769 H   0  0  0  0  0  0  0  0  0  0  0  0
   15.0951   -4.7916   -0.8929 H   0  0  0  0  0  0  0  0  0  0  0  0
   16.1163   -5.6614   -2.0421 H   0  0  0  0  0  0  0  0  0  0  0  0
   17.4499   -2.1134   -2.0708 H   0  0  0  0  0  0  0  0  0  0  0  0
   17.9224   -3.7945   -1.8598 H   0  0  0  0  0  0  0  0  0  0  0  0
   16.9023   -3.0205   -0.6626 H   0  0  0  0  0  0  0  0  0  0  0  0
   13.8182   -2.7729   -2.7389 H   0  0  0  0  0  0  0  0  0  0  0  0
   15.0526   -1.5083   -2.5002 H   0  0  0  0  0  0  0  0  0  0  0  0
   14.5073   -2.4803   -1.1501 H   0  0  0  0  0  0  0  0  0  0  0  0
   17.0339   -1.1866   -7.0216 H   0  0  0  0  0  0  0  0  0  0  0  0
   18.0953    0.7212   -7.3288 H   0  0  0  0  0  0  0  0  0  0  0  0
   18.3778    2.3960   -4.9287 H   0  0  0  0  0  0  0  0  0  0  0  0
   19.4228    2.3227   -6.3455 H   0  0  0  0  0  0  0  0  0  0  0  0
   19.2908    4.0961   -7.9475 H   0  0  0  0  0  0  0  0  0  0  0  0
   18.1944    6.0799   -8.8303 H   0  0  0  0  0  0  0  0  0  0  0  0
   12.6431    6.5475   -9.3772 H   0  0  0  0  0  0  0  0  0  0  0  0
   12.9149    6.0828   -7.6991 H   0  0  0  0  0  0  0  0  0  0  0  0
   13.8380    5.2944   -8.9825 H   0  0  0  0  0  0  0  0  0  0  0  0
   15.1941   10.3872   -9.0074 H   0  0  0  0  0  0  0  0  0  0  0  0
   14.8730    5.4115   -6.1871 H   0  0  0  0  0  0  0  0  0  0  0  0
   15.9646    3.4373   -5.3161 H   0  0  0  0  0  0  0  0  0  0  0  0
   15.0077    0.4878   -7.8065 H   0  0  0  0  0  0  0  0  0  0  0  0
   14.9623   -1.2458   -8.1227 H   0  0  0  0  0  0  0  0  0  0  0  0
   13.5408    0.2879   -5.9216 H   0  0  0  0  0  0  0  0  0  0  0  0
   12.4166   -0.5799   -7.7524 H   0  0  0  0  0  0  0  0  0  0  0  0
   13.8722   -2.6463   -5.4243 H   0  0  0  0  0  0  0  0  0  0  0  0
   14.0452   -1.2631   -4.3501 H   0  0  0  0  0  0  0  0  0  0  0  0
   17.9965   -7.4506   -6.0240 H   0  0  0  0  0  0  0  0  0  0  0  0
   18.1513   -7.4801   -4.2490 H   0  0  0  0  0  0  0  0  0  0  0  0
   19.0077   -6.2386   -5.2116 H   0  0  0  0  0  0  0  0  0  0  0  0
  1  2  2  0  0  0  0
  2  3  1  0  0  0  0
  2 33  1  0  0  0  0
  4  3  1  0  0  0  0
  3 34  1  0  0  0  0
  4  5  1  0  0  0  0
  4 35  1  0  0  0  0
  4  9  1  0  0  0  0
  5  6  1  0  0  0  0
  5  7  1  0  0  0  0
  5  8  1  0  0  0  0
  6 36  1  0  0  0  0
  6 37  1  0  0  0  0
  6 38  1  0  0  0  0
  7 39  1  0  0  0  0
  7 40  1  0  0  0  0
  7 41  1  0  0  0  0
  8 42  1  0  0  0  0
  8 43  1  0  0  0  0
  8 44  1  0  0  0  0
  9 10  2  0  0  0  0
  9 11  1  0  0  0  0
 11 32  1  0  0  0  0
 12 11  1  0  0  0  0
 12 29  1  0  0  0  0
 12 45  1  0  0  0  0
 12 13  1  0  0  0  0
 13 14  2  0  0  0  0
 13 15  1  0  0  0  0
 15 46  1  0  0  0  0
 15 16  1  0  0  0  0
 16 47  1  0  0  0  0
 16 48  1  0  0  0  0
 16 17  1  0  0  0  0
 17 18  1  0  0  0  0
 17 28  2  0  0  0  0
 18 49  1  0  0  0  0
 18 19  2  0  0  0  0
 19 50  1  0  0  0  0
 19 20  1  0  0  0  0
 20 27  2  0  0  0  0
 20 21  1  0  0  0  0
 21 22  2  0  0  0  0
 21 26  1  0  0  0  0
 22 23  1  0  0  0  0
 22 24  1  0  0  0  0
 23 51  1  0  0  0  0
 23 52  1  0  0  0  0
 23 53  1  0  0  0  0
 24 25  2  0  0  0  0
 25 54  1  0  0  0  0
 25 26  1  0  0  0  0
 27 55  1  0  0  0  0
 27 28  1  0  0  0  0
 28 56  1  0  0  0  0
 30 29  1  0  0  0  0
 29 57  1  0  0  0  0
 29 58  1  0  0  0  0
 30 32  1  0  0  0  0
 30 59  1  0  0  0  0
 30 31  1  0  0  0  0
 31 60  1  0  0  0  0
 32 61  1  0  0  0  0
 32 62  1  0  0  0  0
 33 63  1  0  0  0  0
 33 64  1  0  0  0  0
 33 65  1  0  0  0  0
M  ZZC   1 o1
M  ZZC   2 c1
M  ZZC   3 n1
M  ZZC   4 c2
M  ZZC   5 c3
M  ZZC   6 c4
M  ZZC   7 c5
M  ZZC   8 c6
M  ZZC   9 c7
M  ZZC  10 o2
M  ZZC  11 n2
M  ZZC  12 c8
M  ZZC  13 c9
M  ZZC  14 o3
M  ZZC  15 n3
M  ZZC  16 c10
M  ZZC  17 c11
M  ZZC  18 c12
M  ZZC  19 c13
M  ZZC  20 c14
M  ZZC  21 c15
M  ZZC  22 c16
M  ZZC  23 c17
M  ZZC  24 n4
M  ZZC  25 c18
M  ZZC  26 s1
M  ZZC  27 c19
M  ZZC  28 c20
M  ZZC  29 c21
M  ZZC  30 c22
M  ZZC  31 o4
M  ZZC  32 c23
M  ZZC  33 c24
M  ZZC  34 h11
M  ZZC  35 h21
M  ZZC  36 h41
M  ZZC  37 h42
M  ZZC  38 h43
M  ZZC  39 h51
M  ZZC  40 h52
M  ZZC  41 h53
M  ZZC  42 h61
M  ZZC  43 h62
M  ZZC  44 h63
M  ZZC  45 h81
M  ZZC  46 h31
M  ZZC  47 h101
M  ZZC  48 h102
M  ZZC  49 h121
M  ZZC  50 h131
M  ZZC  51 h171
M  ZZC  52 h172
M  ZZC  53 h173
M  ZZC  54 h181
M  ZZC  55 h191
M  ZZC  56 h201
M  ZZC  57 h211
M  ZZC  58 h212
M  ZZC  59 h221
M  ZZC  60 h01
M  ZZC  61 h231
M  ZZC  62 h232
M  ZZC  63 h241
M  ZZC  64 h242
M  ZZC  65 h243
M  ZZM   1 7
M  ZZI   1 81
M  ZZM   2 3
M  ZZI   2 121
M  ZZM   3 10
M  ZZI   3 211
M  ZZM   4 1
M  ZZI   4 113
M  ZZM   5 1
M  ZZI   5 110
M  ZZM   6 1
M  ZZI   6 111
M  ZZM   7 1
M  ZZI   7 111
M  ZZM   8 1
M  ZZI   8 111
M  ZZM   9 3
M  ZZI   9 121
M  ZZM  10 7
M  ZZI  10 81
M  ZZM  11 10
M  ZZI  11 192
M  ZZM  12 1
M  ZZI  12 113
M  ZZM  13 3
M  ZZI  13 121
M  ZZM  14 7
M  ZZI  14 81
M  ZZM  15 10
M  ZZI  15 211
M  ZZM  16 1
M  ZZI  16 112
M  ZZM  17 37
M  ZZI  17 124
M  ZZM  18 37
M  ZZI  18 125
M  ZZM  19 37
M  ZZI  19 125
M  ZZM  20 37
M  ZZI  20 124
M  ZZM  21 63
M  ZZI  21 104
M  ZZM  22 64
M  ZZI  22 105
M  ZZM  23 1
M  ZZI  23 111
M  ZZM  24 66
M  ZZI  24 222
M  ZZM  25 63
M  ZZI  25 104
M  ZZM  26 44
M  ZZI  26 248
M  ZZM  27 37
M  ZZI  27 125
M  ZZM  28 37
M  ZZI  28 125
M  ZZM  29 1
M  ZZI  29 112
M  ZZM  30 1
M  ZZI  30 113
M  ZZM  31 6
M  ZZI  31 60
M  ZZM  32 1
M  ZZI  32 112
M  ZZM  33 1
M  ZZI  33 111
M  ZZM  34 28
M  ZZI  34 11
M  ZZM  35 5
M  ZZI  35 1
M  ZZM  36 5
M  ZZI  36 1
M  ZZM  37 5
M  ZZI  37 1
M  ZZM  38 5
M  ZZI  38 1
M  ZZM  39 5
M  ZZI  39 1
M  ZZM  40 5
M  ZZI  40 1
M  ZZM  41 5
M  ZZI  41 1
M  ZZM  42 5
M  ZZI  42 1
M  ZZM  43 5
M  ZZI  43 1
M  ZZM  44 5
M  ZZI  44 1
M  ZZM  45 5
M  ZZI  45 1
M  ZZM  46 28
M  ZZI  46 11
M  ZZM  47 5
M  ZZI  47 1
M  ZZM  48 5
M  ZZI  48 1
M  ZZM  49 5
M  ZZI  49 1
M  ZZM  50 5
M  ZZI  50 1
M  ZZM  51 5
M  ZZI  51 1
M  ZZM  52 5
M  ZZI  52 1
M  ZZM  53 5
M  ZZI  53 1
M  ZZM  54 5
M  ZZI  54 1
M  ZZM  55 5
M  ZZI  55 1
M  ZZM  56 5
M  ZZI  56 1
M  ZZM  57 5
M  ZZI  57 1
M  ZZM  58 5
M  ZZI  58 1
M  ZZM  59 5
M  ZZI  59 1
M  ZZM  60 21
M  ZZI  60 20
M  ZZM  61 5
M  ZZI  61 1
M  ZZM  62 5
M  ZZI  62 1
M  ZZM  63 5
M  ZZI  63 1
M  ZZM  64 5
M  ZZI  64 1
M  ZZM  65 5
M  ZZI  65 1
M  END
> <IX>
1

> <NAME>
VHL_4LY1_3.pdb

> <Score>
-4.652071

> <Natom>
65

> <Nflex>
8

> <Hbond>
-5.077016

> <Hphob>
-6.399086

> <VwInt>
-27.499858

> <Dsolv>
22.54495

> <SolEl>
22.012289

> <Eintl>
6.238668

> <RecConf>
ND

> <projPath>
VHL_maps/

> <NAME_>
VHL_4LY1_3.pdb

$$$$
