VHL_4BJX_3.pdb
  MOLSOFT 04032206373D

 65 67  0  0  1  0  0  0  0  0999 V2000
   18.1188   -6.6391   -5.1264 C   0  0  0  0  0  0  0  0  0  0  0  0
   16.9014   -5.7716   -4.9626 C   0  0  0  0  0  0  0  0  0  0  0  0
   15.8166   -6.1295   -5.3874 O   0  0  0  0  0  0  0  0  0  0  0  0
   17.1433   -4.5981   -4.2759 N   0  0  0  0  0  0  0  0  0  0  0  0
   16.1354   -3.5586   -4.0090 C   0  0  1  0  0  0  0  0  0  0  0  0
   15.8978   -3.3593   -2.4824 C   0  0  0  0  0  0  0  0  0  0  0  0
   14.7926   -2.3391   -2.1845 C   0  0  0  0  0  0  0  0  0  0  0  0
   17.1644   -2.8936   -1.7495 C   0  0  0  0  0  0  0  0  0  0  0  0
   15.4346   -4.6966   -1.8921 C   0  0  0  0  0  0  0  0  0  0  0  0
   16.6281   -2.3213   -4.7891 C   0  0  0  0  0  0  0  0  0  0  0  0
   17.8228   -2.0527   -4.8457 O   0  0  0  0  0  0  0  0  0  0  0  0
   15.6750   -1.5521   -5.4639 N   0  0  0  0  0  0  0  0  0  0  0  0
   16.0671   -0.6419   -6.5297 C   0  0  2  0  0  0  0  0  0  0  0  0
   16.4477    0.7515   -6.0218 C   0  0  0  0  0  0  0  0  0  0  0  0
   15.9230    1.2727   -5.0470 O   0  0  0  0  0  0  0  0  0  0  0  0
   17.3820    1.3846   -6.8205 N   0  0  0  0  0  0  0  0  0  0  0  0
   17.8320    2.7406   -6.5525 C   0  0  0  0  0  0  0  0  0  0  0  0
   19.2428    3.0200   -7.0140 C   0  0  0  0  0  0  0  0  0  0  0  0
   20.1855    2.0067   -7.1297 C   0  0  0  0  0  0  0  0  0  0  0  0
   21.4858    2.2822   -7.4984 C   0  0  0  0  0  0  0  0  0  0  0  0
   21.8989    3.5795   -7.7561 C   0  0  0  0  0  0  0  0  0  0  0  0
   23.2838    3.8395   -8.1148 C   0  0  0  0  0  0  0  0  0  0  0  0
   24.3522    4.2567   -7.3341 C   0  0  0  0  0  0  0  0  0  0  0  0
   24.3220    4.5876   -5.8915 C   0  0  0  0  0  0  0  0  0  0  0  0
   25.5613    4.3382   -7.9953 N   0  0  0  0  0  0  0  0  0  0  0  0
   25.3984    4.0083   -9.2569 C   0  0  0  0  0  0  0  0  0  0  0  0
   23.8126    3.5916   -9.7303 S   0  0  0  0  0  0  0  0  0  0  0  0
   20.9673    4.6034   -7.6377 C   0  0  0  0  0  0  0  0  0  0  0  0
   19.6577    4.3252   -7.2707 C   0  0  0  0  0  0  0  0  0  0  0  0
   14.8309   -0.5736   -7.4121 C   0  0  0  0  0  0  0  0  0  0  0  0
   13.6778   -0.6932   -6.4266 C   0  0  1  0  0  0  0  0  0  0  0  0
   12.5371   -1.3113   -7.0161 O   0  0  0  0  0  0  0  0  0  0  0  0
   14.2288   -1.5811   -5.3236 C   0  0  0  0  0  0  0  0  0  0  0  0
   19.0116   -6.0315   -5.3016 H   0  0  0  0  0  0  0  0  0  0  0  0
   17.9802   -7.3044   -5.9840 H   0  0  0  0  0  0  0  0  0  0  0  0
   18.2509   -7.2423   -4.2254 H   0  0  0  0  0  0  0  0  0  0  0  0
   18.1039   -4.3943   -4.0237 H   0  0  0  0  0  0  0  0  0  0  0  0
   15.2022   -3.9052   -4.4536 H   0  0  0  0  0  0  0  0  0  0  0  0
   15.0738   -1.3328   -2.5069 H   0  0  0  0  0  0  0  0  0  0  0  0
   14.5883   -2.2738   -1.1106 H   0  0  0  0  0  0  0  0  0  0  0  0
   13.8510   -2.6183   -2.6669 H   0  0  0  0  0  0  0  0  0  0  0  0
   16.9905   -2.8018   -0.6725 H   0  0  0  0  0  0  0  0  0  0  0  0
   17.5061   -1.9174   -2.1069 H   0  0  0  0  0  0  0  0  0  0  0  0
   17.9861   -3.5960   -1.8767 H   0  0  0  0  0  0  0  0  0  0  0  0
   15.1766   -4.5904   -0.8356 H   0  0  0  0  0  0  0  0  0  0  0  0
   16.2079   -5.4627   -1.9720 H   0  0  0  0  0  0  0  0  0  0  0  0
   14.5481   -5.0789   -2.4082 H   0  0  0  0  0  0  0  0  0  0  0  0
   16.9157   -1.0646   -7.0775 H   0  0  0  0  0  0  0  0  0  0  0  0
   17.7763    0.8845   -7.6124 H   0  0  0  0  0  0  0  0  0  0  0  0
   17.1306    3.4041   -7.0701 H   0  0  0  0  0  0  0  0  0  0  0  0
   17.7565    2.9408   -5.4784 H   0  0  0  0  0  0  0  0  0  0  0  0
   19.9162    0.9760   -6.9314 H   0  0  0  0  0  0  0  0  0  0  0  0
   22.1841    1.4591   -7.5855 H   0  0  0  0  0  0  0  0  0  0  0  0
   25.2875    4.9776   -5.5566 H   0  0  0  0  0  0  0  0  0  0  0  0
   24.0996    3.6979   -5.2975 H   0  0  0  0  0  0  0  0  0  0  0  0
   23.5625    5.3453   -5.6787 H   0  0  0  0  0  0  0  0  0  0  0  0
   26.2166    3.9996   -9.9628 H   0  0  0  0  0  0  0  0  0  0  0  0
   21.2578    5.6320   -7.8303 H   0  0  0  0  0  0  0  0  0  0  0  0
   18.9542    5.1478   -7.1787 H   0  0  0  0  0  0  0  0  0  0  0  0
   14.7652    0.3402   -8.0120 H   0  0  0  0  0  0  0  0  0  0  0  0
   14.8207   -1.4206   -8.1069 H   0  0  0  0  0  0  0  0  0  0  0  0
   13.3837    0.2854   -6.0301 H   0  0  0  0  0  0  0  0  0  0  0  0
   12.1911   -0.7185   -7.7076 H   0  0  0  0  0  0  0  0  0  0  0  0
   13.8491   -2.6033   -5.3617 H   0  0  0  0  0  0  0  0  0  0  0  0
   13.9545   -1.1576   -4.3573 H   0  0  0  0  0  0  0  0  0  0  0  0
  1 34  1  0  0  0  0
  1 35  1  0  0  0  0
  1 36  1  0  0  0  0
  1  2  1  0  0  0  0
  2  3  2  0  0  0  0
  2  4  1  0  0  0  0
  4 37  1  0  0  0  0
  5  4  1  0  0  0  0
  5 38  1  0  0  0  0
  5  6  1  0  0  0  0
  5 10  1  0  0  0  0
  6  7  1  0  0  0  0
  6  8  1  0  0  0  0
  6  9  1  0  0  0  0
  7 39  1  0  0  0  0
  7 40  1  0  0  0  0
  7 41  1  0  0  0  0
  8 42  1  0  0  0  0
  8 43  1  0  0  0  0
  8 44  1  0  0  0  0
  9 45  1  0  0  0  0
  9 46  1  0  0  0  0
  9 47  1  0  0  0  0
 10 11  2  0  0  0  0
 10 12  1  0  0  0  0
 12 33  1  0  0  0  0
 13 12  1  0  0  0  0
 13 30  1  0  0  0  0
 13 48  1  0  0  0  0
 13 14  1  0  0  0  0
 14 15  2  0  0  0  0
 14 16  1  0  0  0  0
 16 49  1  0  0  0  0
 16 17  1  0  0  0  0
 17 50  1  0  0  0  0
 17 51  1  0  0  0  0
 17 18  1  0  0  0  0
 18 19  1  0  0  0  0
 18 29  2  0  0  0  0
 19 52  1  0  0  0  0
 19 20  2  0  0  0  0
 20 53  1  0  0  0  0
 20 21  1  0  0  0  0
 21 28  2  0  0  0  0
 21 22  1  0  0  0  0
 22 23  2  0  0  0  0
 22 27  1  0  0  0  0
 23 24  1  0  0  0  0
 23 25  1  0  0  0  0
 24 54  1  0  0  0  0
 24 55  1  0  0  0  0
 24 56  1  0  0  0  0
 25 26  2  0  0  0  0
 26 57  1  0  0  0  0
 26 27  1  0  0  0  0
 28 58  1  0  0  0  0
 28 29  1  0  0  0  0
 29 59  1  0  0  0  0
 31 30  1  0  0  0  0
 30 60  1  0  0  0  0
 30 61  1  0  0  0  0
 31 33  1  0  0  0  0
 31 62  1  0  0  0  0
 31 32  1  0  0  0  0
 32 63  1  0  0  0  0
 33 64  1  0  0  0  0
 33 65  1  0  0  0  0
M  ZZC   1 c1
M  ZZC   2 c2
M  ZZC   3 o1
M  ZZC   4 n1
M  ZZC   5 c3
M  ZZC   6 c4
M  ZZC   7 c5
M  ZZC   8 c6
M  ZZC   9 c7
M  ZZC  10 c8
M  ZZC  11 o2
M  ZZC  12 n2
M  ZZC  13 c9
M  ZZC  14 c10
M  ZZC  15 o3
M  ZZC  16 n3
M  ZZC  17 c11
M  ZZC  18 c12
M  ZZC  19 c13
M  ZZC  20 c14
M  ZZC  21 c15
M  ZZC  22 c16
M  ZZC  23 c17
M  ZZC  24 c18
M  ZZC  25 n4
M  ZZC  26 c19
M  ZZC  27 s1
M  ZZC  28 c20
M  ZZC  29 c21
M  ZZC  30 c22
M  ZZC  31 c23
M  ZZC  32 o4
M  ZZC  33 c24
M  ZZC  34 h11
M  ZZC  35 h12
M  ZZC  36 h13
M  ZZC  37 h01
M  ZZC  38 h31
M  ZZC  39 h51
M  ZZC  40 h52
M  ZZC  41 h53
M  ZZC  42 h61
M  ZZC  43 h62
M  ZZC  44 h63
M  ZZC  45 h71
M  ZZC  46 h72
M  ZZC  47 h73
M  ZZC  48 h91
M  ZZC  49 h02
M  ZZC  50 h111
M  ZZC  51 h112
M  ZZC  52 h131
M  ZZC  53 h141
M  ZZC  54 h181
M  ZZC  55 h182
M  ZZC  56 h183
M  ZZC  57 h191
M  ZZC  58 h201
M  ZZC  59 h211
M  ZZC  60 h221
M  ZZC  61 h222
M  ZZC  62 h231
M  ZZC  63 h41
M  ZZC  64 h241
M  ZZC  65 h242
M  ZZM   1 1
M  ZZI   1 111
M  ZZM   2 3
M  ZZI   2 121
M  ZZM   3 7
M  ZZI   3 81
M  ZZM   4 10
M  ZZI   4 211
M  ZZM   5 1
M  ZZI   5 113
M  ZZM   6 1
M  ZZI   6 110
M  ZZM   7 1
M  ZZI   7 111
M  ZZM   8 1
M  ZZI   8 111
M  ZZM   9 1
M  ZZI   9 111
M  ZZM  10 3
M  ZZI  10 121
M  ZZM  11 7
M  ZZI  11 81
M  ZZM  12 10
M  ZZI  12 192
M  ZZM  13 1
M  ZZI  13 113
M  ZZM  14 3
M  ZZI  14 121
M  ZZM  15 7
M  ZZI  15 81
M  ZZM  16 10
M  ZZI  16 211
M  ZZM  17 1
M  ZZI  17 112
M  ZZM  18 37
M  ZZI  18 124
M  ZZM  19 37
M  ZZI  19 125
M  ZZM  20 37
M  ZZI  20 125
M  ZZM  21 37
M  ZZI  21 124
M  ZZM  22 63
M  ZZI  22 104
M  ZZM  23 64
M  ZZI  23 105
M  ZZM  24 1
M  ZZI  24 111
M  ZZM  25 66
M  ZZI  25 222
M  ZZM  26 63
M  ZZI  26 104
M  ZZM  27 44
M  ZZI  27 248
M  ZZM  28 37
M  ZZI  28 125
M  ZZM  29 37
M  ZZI  29 125
M  ZZM  30 1
M  ZZI  30 112
M  ZZM  31 1
M  ZZI  31 113
M  ZZM  32 6
M  ZZI  32 60
M  ZZM  33 1
M  ZZI  33 112
M  ZZM  34 5
M  ZZI  34 1
M  ZZM  35 5
M  ZZI  35 1
M  ZZM  36 5
M  ZZI  36 1
M  ZZM  37 28
M  ZZI  37 11
M  ZZM  38 5
M  ZZI  38 1
M  ZZM  39 5
M  ZZI  39 1
M  ZZM  40 5
M  ZZI  40 1
M  ZZM  41 5
M  ZZI  41 1
M  ZZM  42 5
M  ZZI  42 1
M  ZZM  43 5
M  ZZI  43 1
M  ZZM  44 5
M  ZZI  44 1
M  ZZM  45 5
M  ZZI  45 1
M  ZZM  46 5
M  ZZI  46 1
M  ZZM  47 5
M  ZZI  47 1
M  ZZM  48 5
M  ZZI  48 1
M  ZZM  49 28
M  ZZI  49 11
M  ZZM  50 5
M  ZZI  50 1
M  ZZM  51 5
M  ZZI  51 1
M  ZZM  52 5
M  ZZI  52 1
M  ZZM  53 5
M  ZZI  53 1
M  ZZM  54 5
M  ZZI  54 1
M  ZZM  55 5
M  ZZI  55 1
M  ZZM  56 5
M  ZZI  56 1
M  ZZM  57 5
M  ZZI  57 1
M  ZZM  58 5
M  ZZI  58 1
M  ZZM  59 5
M  ZZI  59 1
M  ZZM  60 5
M  ZZI  60 1
M  ZZM  61 5
M  ZZI  61 1
M  ZZM  62 5
M  ZZI  62 1
M  ZZM  63 21
M  ZZI  63 20
M  ZZM  64 5
M  ZZI  64 1
M  ZZM  65 5
M  ZZI  65 1
M  END
> <IX>
1

> <NAME>
VHL_4BJX_3.pdb

> <Score>
-11.762182

> <Natom>
65

> <Nflex>
8

> <Hbond>
-4.967126

> <Hphob>
-6.506963

> <VwInt>
-28.061914

> <Dsolv>
16.827543

> <SolEl>
16.851138

> <Eintl>
7.80636

> <RecConf>
ND

> <projPath>
VHL_maps/

> <NAME_>
VHL_4BJX_3.pdb

$$$$
