VHL_2GQG_15.pdb
  MOLSOFT 04032206373D

 65 67  0  0  1  0  0  0  0  0999 V2000
   18.0602   -7.0375   -5.1186 C   0  0  0  0  0  0  0  0  0  0  0  0
   16.9178   -6.0618   -5.0702 C   0  0  0  0  0  0  0  0  0  0  0  0
   15.8411   -6.3352   -5.5721 O   0  0  0  0  0  0  0  0  0  0  0  0
   17.2069   -4.9007   -4.3823 N   0  0  0  0  0  0  0  0  0  0  0  0
   16.2679   -3.7829   -4.2101 C   0  0  1  0  0  0  0  0  0  0  0  0
   15.8591   -3.5654   -2.7213 C   0  0  0  0  0  0  0  0  0  0  0  0
   17.0314   -3.0788   -1.8568 C   0  0  0  0  0  0  0  0  0  0  0  0
   15.3348   -4.8900   -2.1520 C   0  0  0  0  0  0  0  0  0  0  0  0
   14.7248   -2.5391   -2.5842 C   0  0  0  0  0  0  0  0  0  0  0  0
   16.9636   -2.5798   -4.8708 C   0  0  0  0  0  0  0  0  0  0  0  0
   18.1669   -2.3973   -4.7441 O   0  0  0  0  0  0  0  0  0  0  0  0
   16.1881   -1.6782   -5.5963 N   0  0  0  0  0  0  0  0  0  0  0  0
   16.8190   -0.5859   -6.3249 C   0  0  2  0  0  0  0  0  0  0  0  0
   17.3540    0.5054   -5.4005 C   0  0  0  0  0  0  0  0  0  0  0  0
   16.9056    0.7084   -4.2800 O   0  0  0  0  0  0  0  0  0  0  0  0
   18.3188    1.2922   -6.0062 N   0  0  0  0  0  0  0  0  0  0  0  0
   18.6872    2.5924   -5.4816 C   0  0  0  0  0  0  0  0  0  0  0  0
   17.6885    3.6054   -5.9741 C   0  0  0  0  0  0  0  0  0  0  0  0
   16.4442    3.6951   -5.3595 C   0  0  0  0  0  0  0  0  0  0  0  0
   15.4164    4.3919   -5.9550 C   0  0  0  0  0  0  0  0  0  0  0  0
   15.6229    5.0463   -7.1589 C   0  0  0  0  0  0  0  0  0  0  0  0
   14.4811    5.6013   -7.8519 C   0  0  0  0  0  0  0  0  0  0  0  0
   13.4536    4.9408   -8.5097 C   0  0  0  0  0  0  0  0  0  0  0  0
   13.3377    3.4805   -8.7420 C   0  0  0  0  0  0  0  0  0  0  0  0
   12.4393    5.7569   -8.9557 N   0  0  0  0  0  0  0  0  0  0  0  0
   12.7455    7.0083   -8.6922 C   0  0  0  0  0  0  0  0  0  0  0  0
   14.2229    7.2938   -7.8932 S   0  0  0  0  0  0  0  0  0  0  0  0
   16.8987    5.0807   -7.7086 C   0  0  0  0  0  0  0  0  0  0  0  0
   17.9223    4.3487   -7.1282 C   0  0  0  0  0  0  0  0  0  0  0  0
   15.7228   -0.0373   -7.2384 C   0  0  0  0  0  0  0  0  0  0  0  0
   14.4471   -0.4068   -6.5039 C   0  0  1  0  0  0  0  0  0  0  0  0
   13.3312   -0.4667   -7.3881 O   0  0  0  0  0  0  0  0  0  0  0  0
   14.7930   -1.7758   -5.9550 C   0  0  0  0  0  0  0  0  0  0  0  0
   19.0218   -6.5172   -5.1594 H   0  0  0  0  0  0  0  0  0  0  0  0
   17.9667   -7.6606   -6.0127 H   0  0  0  0  0  0  0  0  0  0  0  0
   18.0202   -7.6728   -4.2306 H   0  0  0  0  0  0  0  0  0  0  0  0
   18.1591   -4.7671   -4.0595 H   0  0  0  0  0  0  0  0  0  0  0  0
   15.3686   -4.0261   -4.7695 H   0  0  0  0  0  0  0  0  0  0  0  0
   16.7475   -3.0091   -0.8018 H   0  0  0  0  0  0  0  0  0  0  0  0
   17.3792   -2.0868   -2.1610 H   0  0  0  0  0  0  0  0  0  0  0  0
   17.8815   -3.7563   -1.9134 H   0  0  0  0  0  0  0  0  0  0  0  0
   15.0023   -4.7773   -1.1153 H   0  0  0  0  0  0  0  0  0  0  0  0
   16.1102   -5.6601   -2.1649 H   0  0  0  0  0  0  0  0  0  0  0  0
   14.4870   -5.2708   -2.7248 H   0  0  0  0  0  0  0  0  0  0  0  0
   15.0241   -1.5597   -2.9718 H   0  0  0  0  0  0  0  0  0  0  0  0
   14.4456   -2.3902   -1.5368 H   0  0  0  0  0  0  0  0  0  0  0  0
   13.8316   -2.8376   -3.1403 H   0  0  0  0  0  0  0  0  0  0  0  0
   17.6463   -0.9820   -6.9109 H   0  0  0  0  0  0  0  0  0  0  0  0
   18.6863    1.0184   -6.9130 H   0  0  0  0  0  0  0  0  0  0  0  0
   18.7076    2.5633   -4.3865 H   0  0  0  0  0  0  0  0  0  0  0  0
   19.6976    2.8261   -5.8329 H   0  0  0  0  0  0  0  0  0  0  0  0
   16.2392    3.1499   -4.4430 H   0  0  0  0  0  0  0  0  0  0  0  0
   14.4316    4.3786   -5.4954 H   0  0  0  0  0  0  0  0  0  0  0  0
   12.4661    3.2543   -9.3625 H   0  0  0  0  0  0  0  0  0  0  0  0
   13.2168    2.9382   -7.8003 H   0  0  0  0  0  0  0  0  0  0  0  0
   14.2279    3.0898   -9.2420 H   0  0  0  0  0  0  0  0  0  0  0  0
   12.1028    7.8297   -8.9536 H   0  0  0  0  0  0  0  0  0  0  0  0
   17.0874    5.6301   -8.6266 H   0  0  0  0  0  0  0  0  0  0  0  0
   18.8915    4.3160   -7.6171 H   0  0  0  0  0  0  0  0  0  0  0  0
   15.7900    1.0391   -7.4287 H   0  0  0  0  0  0  0  0  0  0  0  0
   15.7522   -0.5321   -8.2168 H   0  0  0  0  0  0  0  0  0  0  0  0
   14.2425    0.3124   -5.7014 H   0  0  0  0  0  0  0  0  0  0  0  0
   12.5253   -0.3229   -6.8612 H   0  0  0  0  0  0  0  0  0  0  0  0
   14.7205   -2.5333   -6.7394 H   0  0  0  0  0  0  0  0  0  0  0  0
   14.1510   -2.0800   -5.1294 H   0  0  0  0  0  0  0  0  0  0  0  0
  1 34  1  0  0  0  0
  1 35  1  0  0  0  0
  1 36  1  0  0  0  0
  1  2  1  0  0  0  0
  2  3  2  0  0  0  0
  2  4  1  0  0  0  0
  4 37  1  0  0  0  0
  5  4  1  0  0  0  0
  5 38  1  0  0  0  0
  5  6  1  0  0  0  0
  5 10  1  0  0  0  0
  6  7  1  0  0  0  0
  6  8  1  0  0  0  0
  6  9  1  0  0  0  0
  7 39  1  0  0  0  0
  7 40  1  0  0  0  0
  7 41  1  0  0  0  0
  8 42  1  0  0  0  0
  8 43  1  0  0  0  0
  8 44  1  0  0  0  0
  9 45  1  0  0  0  0
  9 46  1  0  0  0  0
  9 47  1  0  0  0  0
 10 11  2  0  0  0  0
 10 12  1  0  0  0  0
 12 33  1  0  0  0  0
 13 12  1  0  0  0  0
 13 30  1  0  0  0  0
 13 48  1  0  0  0  0
 13 14  1  0  0  0  0
 14 15  2  0  0  0  0
 14 16  1  0  0  0  0
 16 49  1  0  0  0  0
 16 17  1  0  0  0  0
 17 50  1  0  0  0  0
 17 51  1  0  0  0  0
 17 18  1  0  0  0  0
 18 19  1  0  0  0  0
 18 29  2  0  0  0  0
 19 52  1  0  0  0  0
 19 20  2  0  0  0  0
 20 53  1  0  0  0  0
 20 21  1  0  0  0  0
 21 28  2  0  0  0  0
 21 22  1  0  0  0  0
 22 23  2  0  0  0  0
 22 27  1  0  0  0  0
 23 24  1  0  0  0  0
 23 25  1  0  0  0  0
 24 54  1  0  0  0  0
 24 55  1  0  0  0  0
 24 56  1  0  0  0  0
 25 26  2  0  0  0  0
 26 57  1  0  0  0  0
 26 27  1  0  0  0  0
 28 58  1  0  0  0  0
 28 29  1  0  0  0  0
 29 59  1  0  0  0  0
 31 30  1  0  0  0  0
 30 60  1  0  0  0  0
 30 61  1  0  0  0  0
 31 33  1  0  0  0  0
 31 62  1  0  0  0  0
 31 32  1  0  0  0  0
 32 63  1  0  0  0  0
 33 64  1  0  0  0  0
 33 65  1  0  0  0  0
M  ZZC   1 c1
M  ZZC   2 c2
M  ZZC   3 o1
M  ZZC   4 n1
M  ZZC   5 c3
M  ZZC   6 c4
M  ZZC   7 c5
M  ZZC   8 c6
M  ZZC   9 c7
M  ZZC  10 c8
M  ZZC  11 o2
M  ZZC  12 n2
M  ZZC  13 c9
M  ZZC  14 c10
M  ZZC  15 o3
M  ZZC  16 n3
M  ZZC  17 c11
M  ZZC  18 c12
M  ZZC  19 c13
M  ZZC  20 c14
M  ZZC  21 c15
M  ZZC  22 c16
M  ZZC  23 c17
M  ZZC  24 c18
M  ZZC  25 n4
M  ZZC  26 c19
M  ZZC  27 s1
M  ZZC  28 c20
M  ZZC  29 c21
M  ZZC  30 c22
M  ZZC  31 c23
M  ZZC  32 o4
M  ZZC  33 c24
M  ZZC  34 h11
M  ZZC  35 h12
M  ZZC  36 h13
M  ZZC  37 h01
M  ZZC  38 h31
M  ZZC  39 h51
M  ZZC  40 h52
M  ZZC  41 h53
M  ZZC  42 h61
M  ZZC  43 h62
M  ZZC  44 h63
M  ZZC  45 h71
M  ZZC  46 h72
M  ZZC  47 h73
M  ZZC  48 h91
M  ZZC  49 h02
M  ZZC  50 h111
M  ZZC  51 h112
M  ZZC  52 h131
M  ZZC  53 h141
M  ZZC  54 h181
M  ZZC  55 h182
M  ZZC  56 h183
M  ZZC  57 h191
M  ZZC  58 h201
M  ZZC  59 h211
M  ZZC  60 h221
M  ZZC  61 h222
M  ZZC  62 h231
M  ZZC  63 h41
M  ZZC  64 h241
M  ZZC  65 h242
M  ZZM   1 1
M  ZZI   1 111
M  ZZM   2 3
M  ZZI   2 121
M  ZZM   3 7
M  ZZI   3 81
M  ZZM   4 10
M  ZZI   4 211
M  ZZM   5 1
M  ZZI   5 113
M  ZZM   6 1
M  ZZI   6 110
M  ZZM   7 1
M  ZZI   7 111
M  ZZM   8 1
M  ZZI   8 111
M  ZZM   9 1
M  ZZI   9 111
M  ZZM  10 3
M  ZZI  10 121
M  ZZM  11 7
M  ZZI  11 81
M  ZZM  12 10
M  ZZI  12 192
M  ZZM  13 1
M  ZZI  13 113
M  ZZM  14 3
M  ZZI  14 121
M  ZZM  15 7
M  ZZI  15 81
M  ZZM  16 10
M  ZZI  16 211
M  ZZM  17 1
M  ZZI  17 112
M  ZZM  18 37
M  ZZI  18 124
M  ZZM  19 37
M  ZZI  19 125
M  ZZM  20 37
M  ZZI  20 125
M  ZZM  21 37
M  ZZI  21 124
M  ZZM  22 63
M  ZZI  22 104
M  ZZM  23 64
M  ZZI  23 105
M  ZZM  24 1
M  ZZI  24 111
M  ZZM  25 66
M  ZZI  25 222
M  ZZM  26 63
M  ZZI  26 104
M  ZZM  27 44
M  ZZI  27 248
M  ZZM  28 37
M  ZZI  28 125
M  ZZM  29 37
M  ZZI  29 125
M  ZZM  30 1
M  ZZI  30 112
M  ZZM  31 1
M  ZZI  31 113
M  ZZM  32 6
M  ZZI  32 60
M  ZZM  33 1
M  ZZI  33 112
M  ZZM  34 5
M  ZZI  34 1
M  ZZM  35 5
M  ZZI  35 1
M  ZZM  36 5
M  ZZI  36 1
M  ZZM  37 28
M  ZZI  37 11
M  ZZM  38 5
M  ZZI  38 1
M  ZZM  39 5
M  ZZI  39 1
M  ZZM  40 5
M  ZZI  40 1
M  ZZM  41 5
M  ZZI  41 1
M  ZZM  42 5
M  ZZI  42 1
M  ZZM  43 5
M  ZZI  43 1
M  ZZM  44 5
M  ZZI  44 1
M  ZZM  45 5
M  ZZI  45 1
M  ZZM  46 5
M  ZZI  46 1
M  ZZM  47 5
M  ZZI  47 1
M  ZZM  48 5
M  ZZI  48 1
M  ZZM  49 28
M  ZZI  49 11
M  ZZM  50 5
M  ZZI  50 1
M  ZZM  51 5
M  ZZI  51 1
M  ZZM  52 5
M  ZZI  52 1
M  ZZM  53 5
M  ZZI  53 1
M  ZZM  54 5
M  ZZI  54 1
M  ZZM  55 5
M  ZZI  55 1
M  ZZM  56 5
M  ZZI  56 1
M  ZZM  57 5
M  ZZI  57 1
M  ZZM  58 5
M  ZZI  58 1
M  ZZM  59 5
M  ZZI  59 1
M  ZZM  60 5
M  ZZI  60 1
M  ZZM  61 5
M  ZZI  61 1
M  ZZM  62 5
M  ZZI  62 1
M  ZZM  63 21
M  ZZI  63 20
M  ZZM  64 5
M  ZZI  64 1
M  ZZM  65 5
M  ZZI  65 1
M  END
> <IX>
1

> <NAME>
VHL_2GQG_15.pdb

> <Score>
-7.575582

> <Natom>
65

> <Nflex>
8

> <Hbond>
-6.302464

> <Hphob>
-6.839246

> <VwInt>
-28.242572

> <Dsolv>
21.538413

> <SolEl>
23.706467

> <Eintl>
7.657402

> <RecConf>
ND

> <projPath>
VHL_maps/

> <NAME_>
VHL_2GQG_15.pdb

$$$$
