VHL_4N14_1.pdb
  MOLSOFT 04032206393D

 65 67  0  0  1  0  0  0  0  0999 V2000
   18.1201   -6.6990   -5.1308 C   0  0  0  0  0  0  0  0  0  0  0  0
   16.9103   -5.8169   -4.9859 C   0  0  0  0  0  0  0  0  0  0  0  0
   15.8247   -6.1701   -5.4128 O   0  0  0  0  0  0  0  0  0  0  0  0
   17.1574   -4.6392   -4.3084 N   0  0  0  0  0  0  0  0  0  0  0  0
   16.1537   -3.5960   -4.0418 C   0  0  1  0  0  0  0  0  0  0  0  0
   15.8830   -3.4281   -2.5173 C   0  0  0  0  0  0  0  0  0  0  0  0
   17.1331   -2.9779   -1.7482 C   0  0  0  0  0  0  0  0  0  0  0  0
   15.4050   -4.7774   -1.9664 C   0  0  0  0  0  0  0  0  0  0  0  0
   14.7727   -2.4131   -2.2220 C   0  0  0  0  0  0  0  0  0  0  0  0
   16.6767   -2.3499   -4.7872 C   0  0  0  0  0  0  0  0  0  0  0  0
   17.8754   -2.0974   -4.8196 O   0  0  0  0  0  0  0  0  0  0  0  0
   15.7486   -1.5508   -5.4614 N   0  0  0  0  0  0  0  0  0  0  0  0
   16.1778   -0.6165   -6.4919 C   0  0  2  0  0  0  0  0  0  0  0  0
   16.5806    0.7502   -5.9283 C   0  0  0  0  0  0  0  0  0  0  0  0
   16.0349    1.2531   -4.9554 O   0  0  0  0  0  0  0  0  0  0  0  0
   17.5609    1.3840   -6.6721 N   0  0  0  0  0  0  0  0  0  0  0  0
   18.0127    2.7311   -6.3580 C   0  0  0  0  0  0  0  0  0  0  0  0
   19.4686    3.0230   -6.6502 C   0  0  0  0  0  0  0  0  0  0  0  0
   20.3550    2.0833   -7.1663 C   0  0  0  0  0  0  0  0  0  0  0  0
   21.6839    2.3966   -7.3796 C   0  0  0  0  0  0  0  0  0  0  0  0
   22.1919    3.6493   -7.0706 C   0  0  0  0  0  0  0  0  0  0  0  0
   23.6157    3.9221   -7.2294 C   0  0  0  0  0  0  0  0  0  0  0  0
   24.4353    3.8849   -8.3516 C   0  0  0  0  0  0  0  0  0  0  0  0
   24.0321    3.6155   -9.7492 C   0  0  0  0  0  0  0  0  0  0  0  0
   25.7729    4.1222   -8.1083 N   0  0  0  0  0  0  0  0  0  0  0  0
   25.9571    4.3581   -6.8295 C   0  0  0  0  0  0  0  0  0  0  0  0
   24.5618    4.3183   -5.8468 S   0  0  0  0  0  0  0  0  0  0  0  0
   21.3107    4.6008   -6.5714 C   0  0  0  0  0  0  0  0  0  0  0  0
   19.9734    4.2911   -6.3717 C   0  0  0  0  0  0  0  0  0  0  0  0
   14.9604   -0.4981   -7.3967 C   0  0  0  0  0  0  0  0  0  0  0  0
   13.7834   -0.6403   -6.4420 C   0  0  1  0  0  0  0  0  0  0  0  0
   12.6516   -1.2343   -7.0731 O   0  0  0  0  0  0  0  0  0  0  0  0
   14.3003   -1.5603   -5.3494 C   0  0  0  0  0  0  0  0  0  0  0  0
   19.0320   -6.1036   -5.2375 H   0  0  0  0  0  0  0  0  0  0  0  0
   18.0101   -7.3234   -6.0225 H   0  0  0  0  0  0  0  0  0  0  0  0
   18.1990   -7.3413   -4.2504 H   0  0  0  0  0  0  0  0  0  0  0  0
   18.1177   -4.4394   -4.0522 H   0  0  0  0  0  0  0  0  0  0  0  0
   15.2274   -3.9237   -4.5125 H   0  0  0  0  0  0  0  0  0  0  0  0
   16.9378   -2.9117   -0.6729 H   0  0  0  0  0  0  0  0  0  0  0  0
   17.4799   -1.9932   -2.0763 H   0  0  0  0  0  0  0  0  0  0  0  0
   17.9586   -3.6751   -1.8768 H   0  0  0  0  0  0  0  0  0  0  0  0
   15.1348   -4.6967   -0.9112 H   0  0  0  0  0  0  0  0  0  0  0  0
   16.1733   -5.5477   -2.0554 H   0  0  0  0  0  0  0  0  0  0  0  0
   14.5215   -5.1398   -2.5018 H   0  0  0  0  0  0  0  0  0  0  0  0
   15.0630   -1.4034   -2.5307 H   0  0  0  0  0  0  0  0  0  0  0  0
   14.5520   -2.3631   -1.1514 H   0  0  0  0  0  0  0  0  0  0  0  0
   13.8538   -2.6494   -2.7654 H   0  0  0  0  0  0  0  0  0  0  0  0
   17.0281   -1.0383   -7.0365 H   0  0  0  0  0  0  0  0  0  0  0  0
   17.9415    0.9108   -7.4853 H   0  0  0  0  0  0  0  0  0  0  0  0
   17.3858    3.4081   -6.9484 H   0  0  0  0  0  0  0  0  0  0  0  0
   17.8150    2.9293   -5.2992 H   0  0  0  0  0  0  0  0  0  0  0  0
   20.0349    1.0744   -7.3923 H   0  0  0  0  0  0  0  0  0  0  0  0
   22.3342    1.6244   -7.7706 H   0  0  0  0  0  0  0  0  0  0  0  0
   23.8920    2.5443   -9.9074 H   0  0  0  0  0  0  0  0  0  0  0  0
   24.7978    3.9577  -10.4511 H   0  0  0  0  0  0  0  0  0  0  0  0
   23.1020    4.1337   -9.9968 H   0  0  0  0  0  0  0  0  0  0  0  0
   26.9339    4.5665   -6.4164 H   0  0  0  0  0  0  0  0  0  0  0  0
   21.6619    5.5979   -6.3229 H   0  0  0  0  0  0  0  0  0  0  0  0
   19.3172    5.0580   -5.9701 H   0  0  0  0  0  0  0  0  0  0  0  0
   14.9198    0.4400   -7.9603 H   0  0  0  0  0  0  0  0  0  0  0  0
   14.9534   -1.3149   -8.1272 H   0  0  0  0  0  0  0  0  0  0  0  0
   13.4857    0.3292   -6.0261 H   0  0  0  0  0  0  0  0  0  0  0  0
   12.3430   -0.6337   -7.7749 H   0  0  0  0  0  0  0  0  0  0  0  0
   13.9050   -2.5751   -5.4123 H   0  0  0  0  0  0  0  0  0  0  0  0
   14.0161   -1.1503   -4.3804 H   0  0  0  0  0  0  0  0  0  0  0  0
  1 34  1  0  0  0  0
  1 35  1  0  0  0  0
  1 36  1  0  0  0  0
  1  2  1  0  0  0  0
  2  3  2  0  0  0  0
  2  4  1  0  0  0  0
  4 37  1  0  0  0  0
  5  4  1  0  0  0  0
  5 38  1  0  0  0  0
  5  6  1  0  0  0  0
  5 10  1  0  0  0  0
  6  7  1  0  0  0  0
  6  8  1  0  0  0  0
  6  9  1  0  0  0  0
  7 39  1  0  0  0  0
  7 40  1  0  0  0  0
  7 41  1  0  0  0  0
  8 42  1  0  0  0  0
  8 43  1  0  0  0  0
  8 44  1  0  0  0  0
  9 45  1  0  0  0  0
  9 46  1  0  0  0  0
  9 47  1  0  0  0  0
 10 11  2  0  0  0  0
 10 12  1  0  0  0  0
 12 33  1  0  0  0  0
 13 12  1  0  0  0  0
 13 30  1  0  0  0  0
 13 48  1  0  0  0  0
 13 14  1  0  0  0  0
 14 15  2  0  0  0  0
 14 16  1  0  0  0  0
 16 49  1  0  0  0  0
 16 17  1  0  0  0  0
 17 50  1  0  0  0  0
 17 51  1  0  0  0  0
 17 18  1  0  0  0  0
 18 19  1  0  0  0  0
 18 29  2  0  0  0  0
 19 52  1  0  0  0  0
 19 20  2  0  0  0  0
 20 53  1  0  0  0  0
 20 21  1  0  0  0  0
 21 28  2  0  0  0  0
 21 22  1  0  0  0  0
 22 23  2  0  0  0  0
 22 27  1  0  0  0  0
 23 24  1  0  0  0  0
 23 25  1  0  0  0  0
 24 54  1  0  0  0  0
 24 55  1  0  0  0  0
 24 56  1  0  0  0  0
 25 26  2  0  0  0  0
 26 57  1  0  0  0  0
 26 27  1  0  0  0  0
 28 58  1  0  0  0  0
 28 29  1  0  0  0  0
 29 59  1  0  0  0  0
 31 30  1  0  0  0  0
 30 60  1  0  0  0  0
 30 61  1  0  0  0  0
 31 33  1  0  0  0  0
 31 62  1  0  0  0  0
 31 32  1  0  0  0  0
 32 63  1  0  0  0  0
 33 64  1  0  0  0  0
 33 65  1  0  0  0  0
M  ZZC   1 c1
M  ZZC   2 c2
M  ZZC   3 o1
M  ZZC   4 n1
M  ZZC   5 c3
M  ZZC   6 c4
M  ZZC   7 c5
M  ZZC   8 c6
M  ZZC   9 c7
M  ZZC  10 c8
M  ZZC  11 o2
M  ZZC  12 n2
M  ZZC  13 c9
M  ZZC  14 c10
M  ZZC  15 o3
M  ZZC  16 n3
M  ZZC  17 c11
M  ZZC  18 c12
M  ZZC  19 c13
M  ZZC  20 c14
M  ZZC  21 c15
M  ZZC  22 c16
M  ZZC  23 c17
M  ZZC  24 c18
M  ZZC  25 n4
M  ZZC  26 c19
M  ZZC  27 s1
M  ZZC  28 c20
M  ZZC  29 c21
M  ZZC  30 c22
M  ZZC  31 c23
M  ZZC  32 o4
M  ZZC  33 c24
M  ZZC  34 h11
M  ZZC  35 h12
M  ZZC  36 h13
M  ZZC  37 h01
M  ZZC  38 h31
M  ZZC  39 h51
M  ZZC  40 h52
M  ZZC  41 h53
M  ZZC  42 h61
M  ZZC  43 h62
M  ZZC  44 h63
M  ZZC  45 h71
M  ZZC  46 h72
M  ZZC  47 h73
M  ZZC  48 h91
M  ZZC  49 h02
M  ZZC  50 h111
M  ZZC  51 h112
M  ZZC  52 h131
M  ZZC  53 h141
M  ZZC  54 h181
M  ZZC  55 h182
M  ZZC  56 h183
M  ZZC  57 h191
M  ZZC  58 h201
M  ZZC  59 h211
M  ZZC  60 h221
M  ZZC  61 h222
M  ZZC  62 h231
M  ZZC  63 h41
M  ZZC  64 h241
M  ZZC  65 h242
M  ZZM   1 1
M  ZZI   1 111
M  ZZM   2 3
M  ZZI   2 121
M  ZZM   3 7
M  ZZI   3 81
M  ZZM   4 10
M  ZZI   4 211
M  ZZM   5 1
M  ZZI   5 113
M  ZZM   6 1
M  ZZI   6 110
M  ZZM   7 1
M  ZZI   7 111
M  ZZM   8 1
M  ZZI   8 111
M  ZZM   9 1
M  ZZI   9 111
M  ZZM  10 3
M  ZZI  10 121
M  ZZM  11 7
M  ZZI  11 81
M  ZZM  12 10
M  ZZI  12 192
M  ZZM  13 1
M  ZZI  13 113
M  ZZM  14 3
M  ZZI  14 121
M  ZZM  15 7
M  ZZI  15 81
M  ZZM  16 10
M  ZZI  16 211
M  ZZM  17 1
M  ZZI  17 112
M  ZZM  18 37
M  ZZI  18 124
M  ZZM  19 37
M  ZZI  19 125
M  ZZM  20 37
M  ZZI  20 125
M  ZZM  21 37
M  ZZI  21 124
M  ZZM  22 63
M  ZZI  22 104
M  ZZM  23 64
M  ZZI  23 105
M  ZZM  24 1
M  ZZI  24 111
M  ZZM  25 66
M  ZZI  25 222
M  ZZM  26 63
M  ZZI  26 104
M  ZZM  27 44
M  ZZI  27 248
M  ZZM  28 37
M  ZZI  28 125
M  ZZM  29 37
M  ZZI  29 125
M  ZZM  30 1
M  ZZI  30 112
M  ZZM  31 1
M  ZZI  31 113
M  ZZM  32 6
M  ZZI  32 60
M  ZZM  33 1
M  ZZI  33 112
M  ZZM  34 5
M  ZZI  34 1
M  ZZM  35 5
M  ZZI  35 1
M  ZZM  36 5
M  ZZI  36 1
M  ZZM  37 28
M  ZZI  37 11
M  ZZM  38 5
M  ZZI  38 1
M  ZZM  39 5
M  ZZI  39 1
M  ZZM  40 5
M  ZZI  40 1
M  ZZM  41 5
M  ZZI  41 1
M  ZZM  42 5
M  ZZI  42 1
M  ZZM  43 5
M  ZZI  43 1
M  ZZM  44 5
M  ZZI  44 1
M  ZZM  45 5
M  ZZI  45 1
M  ZZM  46 5
M  ZZI  46 1
M  ZZM  47 5
M  ZZI  47 1
M  ZZM  48 5
M  ZZI  48 1
M  ZZM  49 28
M  ZZI  49 11
M  ZZM  50 5
M  ZZI  50 1
M  ZZM  51 5
M  ZZI  51 1
M  ZZM  52 5
M  ZZI  52 1
M  ZZM  53 5
M  ZZI  53 1
M  ZZM  54 5
M  ZZI  54 1
M  ZZM  55 5
M  ZZI  55 1
M  ZZM  56 5
M  ZZI  56 1
M  ZZM  57 5
M  ZZI  57 1
M  ZZM  58 5
M  ZZI  58 1
M  ZZM  59 5
M  ZZI  59 1
M  ZZM  60 5
M  ZZI  60 1
M  ZZM  61 5
M  ZZI  61 1
M  ZZM  62 5
M  ZZI  62 1
M  ZZM  63 21
M  ZZI  63 20
M  ZZM  64 5
M  ZZI  64 1
M  ZZM  65 5
M  ZZI  65 1
M  END
> <IX>
1

> <NAME>
VHL_4N14_1.pdb

> <Score>
-10.689683

> <Natom>
65

> <Nflex>
8

> <Hbond>
-4.958925

> <Hphob>
-6.519004

> <VwInt>
-28.063964

> <Dsolv>
17.003113

> <SolEl>
17.252567

> <Eintl>
8.915107

> <RecConf>
ND

> <projPath>
VHL_maps/

> <NAME_>
VHL_4N14_1.pdb

$$$$
