VHL_2GQG_13.pdb
  MOLSOFT 04032206363D

 65 67  0  0  1  0  0  0  0  0999 V2000
   18.1120   -6.6505   -5.1150 C   0  0  0  0  0  0  0  0  0  0  0  0
   16.8984   -5.7755   -4.9596 C   0  0  0  0  0  0  0  0  0  0  0  0
   15.8128   -6.1315   -5.3839 O   0  0  0  0  0  0  0  0  0  0  0  0
   17.1425   -4.5997   -4.2773 N   0  0  0  0  0  0  0  0  0  0  0  0
   16.1348   -3.5600   -4.0101 C   0  0  1  0  0  0  0  0  0  0  0  0
   15.8984   -3.3608   -2.4834 C   0  0  0  0  0  0  0  0  0  0  0  0
   15.4335   -4.6974   -1.8933 C   0  0  0  0  0  0  0  0  0  0  0  0
   14.7949   -2.3391   -2.1849 C   0  0  0  0  0  0  0  0  0  0  0  0
   17.1654   -2.8971   -1.7505 C   0  0  0  0  0  0  0  0  0  0  0  0
   16.6278   -2.3231   -4.7910 C   0  0  0  0  0  0  0  0  0  0  0  0
   17.8223   -2.0547   -4.8476 O   0  0  0  0  0  0  0  0  0  0  0  0
   15.6745   -1.5528   -5.4646 N   0  0  0  0  0  0  0  0  0  0  0  0
   16.0663   -0.6415   -6.5296 C   0  0  2  0  0  0  0  0  0  0  0  0
   16.4481    0.7512   -6.0206 C   0  0  0  0  0  0  0  0  0  0  0  0
   15.9211    1.2734   -5.0476 O   0  0  0  0  0  0  0  0  0  0  0  0
   17.3861    1.3828   -6.8160 N   0  0  0  0  0  0  0  0  0  0  0  0
   17.8370    2.7382   -6.5462 C   0  0  0  0  0  0  0  0  0  0  0  0
   19.2461    3.0188   -7.0116 C   0  0  0  0  0  0  0  0  0  0  0  0
   20.1894    2.0061   -7.1291 C   0  0  0  0  0  0  0  0  0  0  0  0
   21.4890    2.2823   -7.4999 C   0  0  0  0  0  0  0  0  0  0  0  0
   21.9007    3.5795   -7.7588 C   0  0  0  0  0  0  0  0  0  0  0  0
   23.2848    3.8402   -8.1201 C   0  0  0  0  0  0  0  0  0  0  0  0
   24.3550    4.2560   -7.3411 C   0  0  0  0  0  0  0  0  0  0  0  0
   24.3280    4.5837   -5.8977 C   0  0  0  0  0  0  0  0  0  0  0  0
   25.5630    4.3376   -8.0046 N   0  0  0  0  0  0  0  0  0  0  0  0
   25.3977    4.0088   -9.2661 C   0  0  0  0  0  0  0  0  0  0  0  0
   23.8106    3.5949   -9.7372 S   0  0  0  0  0  0  0  0  0  0  0  0
   20.9688    4.6028   -7.6395 C   0  0  0  0  0  0  0  0  0  0  0  0
   19.6600    4.3239   -7.2701 C   0  0  0  0  0  0  0  0  0  0  0  0
   14.8296   -0.5716   -7.4112 C   0  0  0  0  0  0  0  0  0  0  0  0
   13.6771   -0.6925   -6.4253 C   0  0  1  0  0  0  0  0  0  0  0  0
   12.5357   -1.3092   -7.0150 O   0  0  0  0  0  0  0  0  0  0  0  0
   14.2283   -1.5816   -5.3237 C   0  0  0  0  0  0  0  0  0  0  0  0
   19.0181   -6.0491   -5.2354 H   0  0  0  0  0  0  0  0  0  0  0  0
   17.9958   -7.2794   -6.0029 H   0  0  0  0  0  0  0  0  0  0  0  0
   18.2060   -7.2897   -4.2340 H   0  0  0  0  0  0  0  0  0  0  0  0
   18.1033   -4.3952   -4.0273 H   0  0  0  0  0  0  0  0  0  0  0  0
   15.2014   -3.9064   -4.4542 H   0  0  0  0  0  0  0  0  0  0  0  0
   15.1785   -4.5909   -0.8361 H   0  0  0  0  0  0  0  0  0  0  0  0
   16.2041   -5.4659   -1.9755 H   0  0  0  0  0  0  0  0  0  0  0  0
   14.5437   -5.0760   -2.4063 H   0  0  0  0  0  0  0  0  0  0  0  0
   15.0743   -1.3376   -2.5284 H   0  0  0  0  0  0  0  0  0  0  0  0
   14.6038   -2.2604   -1.1104 H   0  0  0  0  0  0  0  0  0  0  0  0
   13.8614   -2.5915   -2.6953 H   0  0  0  0  0  0  0  0  0  0  0  0
   16.9913   -2.8027   -0.6738 H   0  0  0  0  0  0  0  0  0  0  0  0
   17.5101   -1.9226   -2.1097 H   0  0  0  0  0  0  0  0  0  0  0  0
   17.9853   -3.6019   -1.8763 H   0  0  0  0  0  0  0  0  0  0  0  0
   16.9141   -1.0643   -7.0787 H   0  0  0  0  0  0  0  0  0  0  0  0
   17.7812    0.8825   -7.6074 H   0  0  0  0  0  0  0  0  0  0  0  0
   17.1347    3.4020   -7.0621 H   0  0  0  0  0  0  0  0  0  0  0  0
   17.7629    2.9374   -5.4718 H   0  0  0  0  0  0  0  0  0  0  0  0
   19.9211    0.9753   -6.9301 H   0  0  0  0  0  0  0  0  0  0  0  0
   22.1877    1.4596   -7.5878 H   0  0  0  0  0  0  0  0  0  0  0  0
   25.3015    4.9521   -5.5618 H   0  0  0  0  0  0  0  0  0  0  0  0
   24.0771    3.7037   -5.2985 H   0  0  0  0  0  0  0  0  0  0  0  0
   23.5780    5.3508   -5.6911 H   0  0  0  0  0  0  0  0  0  0  0  0
   26.2143    4.0015   -9.9737 H   0  0  0  0  0  0  0  0  0  0  0  0
   21.2584    5.6315   -7.8328 H   0  0  0  0  0  0  0  0  0  0  0  0
   18.9562    5.1460   -7.1771 H   0  0  0  0  0  0  0  0  0  0  0  0
   14.7638    0.3432   -8.0095 H   0  0  0  0  0  0  0  0  0  0  0  0
   14.8186   -1.4174   -8.1074 H   0  0  0  0  0  0  0  0  0  0  0  0
   13.3839    0.2858   -6.0275 H   0  0  0  0  0  0  0  0  0  0  0  0
   12.1862   -0.7132   -7.7020 H   0  0  0  0  0  0  0  0  0  0  0  0
   13.8475   -2.6033   -5.3608 H   0  0  0  0  0  0  0  0  0  0  0  0
   13.9554   -1.1575   -4.3575 H   0  0  0  0  0  0  0  0  0  0  0  0
  1 34  1  0  0  0  0
  1 35  1  0  0  0  0
  1 36  1  0  0  0  0
  1  2  1  0  0  0  0
  2  3  2  0  0  0  0
  2  4  1  0  0  0  0
  4 37  1  0  0  0  0
  5  4  1  0  0  0  0
  5 38  1  0  0  0  0
  5  6  1  0  0  0  0
  5 10  1  0  0  0  0
  6  7  1  0  0  0  0
  6  8  1  0  0  0  0
  6  9  1  0  0  0  0
  7 39  1  0  0  0  0
  7 40  1  0  0  0  0
  7 41  1  0  0  0  0
  8 42  1  0  0  0  0
  8 43  1  0  0  0  0
  8 44  1  0  0  0  0
  9 45  1  0  0  0  0
  9 46  1  0  0  0  0
  9 47  1  0  0  0  0
 10 11  2  0  0  0  0
 10 12  1  0  0  0  0
 12 33  1  0  0  0  0
 13 12  1  0  0  0  0
 13 30  1  0  0  0  0
 13 48  1  0  0  0  0
 13 14  1  0  0  0  0
 14 15  2  0  0  0  0
 14 16  1  0  0  0  0
 16 49  1  0  0  0  0
 16 17  1  0  0  0  0
 17 50  1  0  0  0  0
 17 51  1  0  0  0  0
 17 18  1  0  0  0  0
 18 19  1  0  0  0  0
 18 29  2  0  0  0  0
 19 52  1  0  0  0  0
 19 20  2  0  0  0  0
 20 53  1  0  0  0  0
 20 21  1  0  0  0  0
 21 28  2  0  0  0  0
 21 22  1  0  0  0  0
 22 23  2  0  0  0  0
 22 27  1  0  0  0  0
 23 24  1  0  0  0  0
 23 25  1  0  0  0  0
 24 54  1  0  0  0  0
 24 55  1  0  0  0  0
 24 56  1  0  0  0  0
 25 26  2  0  0  0  0
 26 57  1  0  0  0  0
 26 27  1  0  0  0  0
 28 58  1  0  0  0  0
 28 29  1  0  0  0  0
 29 59  1  0  0  0  0
 31 30  1  0  0  0  0
 30 60  1  0  0  0  0
 30 61  1  0  0  0  0
 31 33  1  0  0  0  0
 31 62  1  0  0  0  0
 31 32  1  0  0  0  0
 32 63  1  0  0  0  0
 33 64  1  0  0  0  0
 33 65  1  0  0  0  0
M  ZZC   1 c1
M  ZZC   2 c2
M  ZZC   3 o1
M  ZZC   4 n1
M  ZZC   5 c3
M  ZZC   6 c4
M  ZZC   7 c5
M  ZZC   8 c6
M  ZZC   9 c7
M  ZZC  10 c8
M  ZZC  11 o2
M  ZZC  12 n2
M  ZZC  13 c9
M  ZZC  14 c10
M  ZZC  15 o3
M  ZZC  16 n3
M  ZZC  17 c11
M  ZZC  18 c12
M  ZZC  19 c13
M  ZZC  20 c14
M  ZZC  21 c15
M  ZZC  22 c16
M  ZZC  23 c17
M  ZZC  24 c18
M  ZZC  25 n4
M  ZZC  26 c19
M  ZZC  27 s1
M  ZZC  28 c20
M  ZZC  29 c21
M  ZZC  30 c22
M  ZZC  31 c23
M  ZZC  32 o4
M  ZZC  33 c24
M  ZZC  34 h11
M  ZZC  35 h12
M  ZZC  36 h13
M  ZZC  37 h01
M  ZZC  38 h31
M  ZZC  39 h51
M  ZZC  40 h52
M  ZZC  41 h53
M  ZZC  42 h61
M  ZZC  43 h62
M  ZZC  44 h63
M  ZZC  45 h71
M  ZZC  46 h72
M  ZZC  47 h73
M  ZZC  48 h91
M  ZZC  49 h02
M  ZZC  50 h111
M  ZZC  51 h112
M  ZZC  52 h131
M  ZZC  53 h141
M  ZZC  54 h181
M  ZZC  55 h182
M  ZZC  56 h183
M  ZZC  57 h191
M  ZZC  58 h201
M  ZZC  59 h211
M  ZZC  60 h221
M  ZZC  61 h222
M  ZZC  62 h231
M  ZZC  63 h41
M  ZZC  64 h241
M  ZZC  65 h242
M  ZZM   1 1
M  ZZI   1 111
M  ZZM   2 3
M  ZZI   2 121
M  ZZM   3 7
M  ZZI   3 81
M  ZZM   4 10
M  ZZI   4 211
M  ZZM   5 1
M  ZZI   5 113
M  ZZM   6 1
M  ZZI   6 110
M  ZZM   7 1
M  ZZI   7 111
M  ZZM   8 1
M  ZZI   8 111
M  ZZM   9 1
M  ZZI   9 111
M  ZZM  10 3
M  ZZI  10 121
M  ZZM  11 7
M  ZZI  11 81
M  ZZM  12 10
M  ZZI  12 192
M  ZZM  13 1
M  ZZI  13 113
M  ZZM  14 3
M  ZZI  14 121
M  ZZM  15 7
M  ZZI  15 81
M  ZZM  16 10
M  ZZI  16 211
M  ZZM  17 1
M  ZZI  17 112
M  ZZM  18 37
M  ZZI  18 124
M  ZZM  19 37
M  ZZI  19 125
M  ZZM  20 37
M  ZZI  20 125
M  ZZM  21 37
M  ZZI  21 124
M  ZZM  22 63
M  ZZI  22 104
M  ZZM  23 64
M  ZZI  23 105
M  ZZM  24 1
M  ZZI  24 111
M  ZZM  25 66
M  ZZI  25 222
M  ZZM  26 63
M  ZZI  26 104
M  ZZM  27 44
M  ZZI  27 248
M  ZZM  28 37
M  ZZI  28 125
M  ZZM  29 37
M  ZZI  29 125
M  ZZM  30 1
M  ZZI  30 112
M  ZZM  31 1
M  ZZI  31 113
M  ZZM  32 6
M  ZZI  32 60
M  ZZM  33 1
M  ZZI  33 112
M  ZZM  34 5
M  ZZI  34 1
M  ZZM  35 5
M  ZZI  35 1
M  ZZM  36 5
M  ZZI  36 1
M  ZZM  37 28
M  ZZI  37 11
M  ZZM  38 5
M  ZZI  38 1
M  ZZM  39 5
M  ZZI  39 1
M  ZZM  40 5
M  ZZI  40 1
M  ZZM  41 5
M  ZZI  41 1
M  ZZM  42 5
M  ZZI  42 1
M  ZZM  43 5
M  ZZI  43 1
M  ZZM  44 5
M  ZZI  44 1
M  ZZM  45 5
M  ZZI  45 1
M  ZZM  46 5
M  ZZI  46 1
M  ZZM  47 5
M  ZZI  47 1
M  ZZM  48 5
M  ZZI  48 1
M  ZZM  49 28
M  ZZI  49 11
M  ZZM  50 5
M  ZZI  50 1
M  ZZM  51 5
M  ZZI  51 1
M  ZZM  52 5
M  ZZI  52 1
M  ZZM  53 5
M  ZZI  53 1
M  ZZM  54 5
M  ZZI  54 1
M  ZZM  55 5
M  ZZI  55 1
M  ZZM  56 5
M  ZZI  56 1
M  ZZM  57 5
M  ZZI  57 1
M  ZZM  58 5
M  ZZI  58 1
M  ZZM  59 5
M  ZZI  59 1
M  ZZM  60 5
M  ZZI  60 1
M  ZZM  61 5
M  ZZI  61 1
M  ZZM  62 5
M  ZZI  62 1
M  ZZM  63 21
M  ZZI  63 20
M  ZZM  64 5
M  ZZI  64 1
M  ZZM  65 5
M  ZZI  65 1
M  END
> <IX>
1

> <NAME>
VHL_2GQG_13.pdb

> <Score>
-11.792592

> <Natom>
65

> <Nflex>
8

> <Hbond>
-4.966948

> <Hphob>
-6.546265

> <VwInt>
-28.050835

> <Dsolv>
16.586171

> <SolEl>
16.89621

> <Eintl>
8.032486

> <RecConf>
ND

> <projPath>
VHL_maps/

> <NAME_>
VHL_2GQG_13.pdb

$$$$
