VHL_4CI3_31.pdb
  MOLSOFT 04032206393D

 70 73  0  0  1  0  0  0  0  0999 V2000
   16.3850   -3.9321   -1.4254 S   0  0  0  0  0  0  0  0  0  0  0  0
   16.5139   -2.4480   -2.5268 C   0  0  0  0  0  0  0  0  0  0  0  0
   16.3762   -2.8422   -4.0277 C   0  0  2  0  0  0  0  0  0  0  0  0
   17.1864   -3.9990   -4.4295 N   0  0  0  0  0  0  0  0  0  0  0  0
   16.7122   -4.9423   -5.3190 C   0  0  0  0  0  0  0  0  0  0  0  0
   15.5942   -4.9314   -5.8191 O   0  0  0  0  0  0  0  0  0  0  0  0
   17.6728   -6.0301   -5.6360 C   0  0  0  0  0  0  0  0  0  0  0  0
   18.8218   -5.6463   -6.3186 F   0  0  0  0  0  0  0  0  0  0  0  0
   17.8682   -7.1881   -4.6966 C   0  0  0  0  0  0  0  0  0  0  0  0
   17.1464   -7.3995   -5.9859 C   0  0  0  0  0  0  0  0  0  0  0  0
   16.7312   -1.7097   -5.0042 C   0  0  0  0  0  0  0  0  0  0  0  0
   17.8969   -1.3987   -5.2195 O   0  0  0  0  0  0  0  0  0  0  0  0
   15.6649   -1.0927   -5.6572 N   0  0  0  0  0  0  0  0  0  0  0  0
   15.8933   -0.2392   -6.8113 C   0  0  2  0  0  0  0  0  0  0  0  0
   16.2606    1.1855   -6.3935 C   0  0  0  0  0  0  0  0  0  0  0  0
   15.6106    1.8314   -5.5825 O   0  0  0  0  0  0  0  0  0  0  0  0
   17.3797    1.6713   -7.0400 N   0  0  0  0  0  0  0  0  0  0  0  0
   17.8947    3.0024   -6.7695 C   0  0  0  0  0  0  0  0  0  0  0  0
   19.3330    3.2010   -7.1839 C   0  0  0  0  0  0  0  0  0  0  0  0
   19.7988    4.4680   -7.5292 C   0  0  0  0  0  0  0  0  0  0  0  0
   21.1273    4.6765   -7.8712 C   0  0  0  0  0  0  0  0  0  0  0  0
   22.0282    3.6195   -7.8717 C   0  0  0  0  0  0  0  0  0  0  0  0
   23.4268    3.8097   -8.2198 C   0  0  0  0  0  0  0  0  0  0  0  0
   24.5113    4.1593   -7.4279 C   0  0  0  0  0  0  0  0  0  0  0  0
   24.4890    4.4801   -5.9830 C   0  0  0  0  0  0  0  0  0  0  0  0
   25.7262    4.1907   -8.0829 N   0  0  0  0  0  0  0  0  0  0  0  0
   25.5521    3.8912   -9.3504 C   0  0  0  0  0  0  0  0  0  0  0  0
   23.9499    3.5621   -9.8369 S   0  0  0  0  0  0  0  0  0  0  0  0
   21.5670    2.3602   -7.5212 C   0  0  0  0  0  0  0  0  0  0  0  0
   20.2471    2.1537   -7.1744 C   0  0  0  0  0  0  0  0  0  0  0  0
   14.5720   -0.2790   -7.5583 C   0  0  0  0  0  0  0  0  0  0  0  0
   13.5273   -0.4561   -6.4665 C   0  0  1  0  0  0  0  0  0  0  0  0
   12.3727   -1.1478   -6.9420 O   0  0  0  0  0  0  0  0  0  0  0  0
   14.2443   -1.3073   -5.4345 C   0  0  0  0  0  0  0  0  0  0  0  0
   15.4057   -1.4754   -2.0927 C   0  0  0  0  0  0  0  0  0  0  0  0
   17.8668   -1.7999   -2.2010 C   0  0  0  0  0  0  0  0  0  0  0  0
   14.9896   -4.8229   -2.1741 C   0  0  0  0  0  0  0  0  0  0  0  0
   15.3408   -3.1311   -4.2049 H   0  0  0  0  0  0  0  0  0  0  0  0
   18.1435   -4.0810   -4.1054 H   0  0  0  0  0  0  0  0  0  0  0  0
   18.8585   -7.6130   -4.6283 H   0  0  0  0  0  0  0  0  0  0  0  0
   17.2945   -7.2082   -3.7800 H   0  0  0  0  0  0  0  0  0  0  0  0
   16.0835   -7.5842   -5.9343 H   0  0  0  0  0  0  0  0  0  0  0  0
   17.6523   -7.9403   -6.7694 H   0  0  0  0  0  0  0  0  0  0  0  0
   16.6969   -0.6631   -7.4249 H   0  0  0  0  0  0  0  0  0  0  0  0
   17.8841    1.0637   -7.6799 H   0  0  0  0  0  0  0  0  0  0  0  0
   17.2465    3.7002   -7.3109 H   0  0  0  0  0  0  0  0  0  0  0  0
   17.7930    3.2120   -5.6992 H   0  0  0  0  0  0  0  0  0  0  0  0
   19.1193    5.3155   -7.5345 H   0  0  0  0  0  0  0  0  0  0  0  0
   21.4562    5.6756   -8.1412 H   0  0  0  0  0  0  0  0  0  0  0  0
   23.8739    5.3640   -5.7917 H   0  0  0  0  0  0  0  0  0  0  0  0
   25.4967    4.6832   -5.6088 H   0  0  0  0  0  0  0  0  0  0  0  0
   24.0832    3.6467   -5.4053 H   0  0  0  0  0  0  0  0  0  0  0  0
   26.3714    3.8560  -10.0541 H   0  0  0  0  0  0  0  0  0  0  0  0
   22.2386    1.5108   -7.5270 H   0  0  0  0  0  0  0  0  0  0  0  0
   19.9377    1.1504   -6.9012 H   0  0  0  0  0  0  0  0  0  0  0  0
   14.3831    0.6065   -8.1745 H   0  0  0  0  0  0  0  0  0  0  0  0
   14.5671   -1.1511   -8.2188 H   0  0  0  0  0  0  0  0  0  0  0  0
   13.2213    0.5057   -6.0402 H   0  0  0  0  0  0  0  0  0  0  0  0
   11.9457   -0.6030   -7.6280 H   0  0  0  0  0  0  0  0  0  0  0  0
   14.0048   -2.3675   -5.5462 H   0  0  0  0  0  0  0  0  0  0  0  0
   13.9728   -1.0095   -4.4196 H   0  0  0  0  0  0  0  0  0  0  0  0
   15.4784   -0.5270   -2.6338 H   0  0  0  0  0  0  0  0  0  0  0  0
   15.4726   -1.2310   -1.0270 H   0  0  0  0  0  0  0  0  0  0  0  0
   14.4034   -1.8761   -2.2723 H   0  0  0  0  0  0  0  0  0  0  0  0
   17.9884   -1.6212   -1.1273 H   0  0  0  0  0  0  0  0  0  0  0  0
   17.9753   -0.8254   -2.6864 H   0  0  0  0  0  0  0  0  0  0  0  0
   18.7024   -2.4195   -2.5273 H   0  0  0  0  0  0  0  0  0  0  0  0
   14.5772   -5.5078   -1.4390 H   0  0  0  0  0  0  0  0  0  0  0  0
   15.3156   -5.4272   -3.0204 H   0  0  0  0  0  0  0  0  0  0  0  0
   14.1961   -4.1438   -2.4872 H   0  0  0  0  0  0  0  0  0  0  0  0
  1  2  1  0  0  0  0
  1 37  1  0  0  0  0
  3  2  1  0  0  0  0
  2 35  1  0  0  0  0
  2 36  1  0  0  0  0
  3  4  1  0  0  0  0
  3 38  1  0  0  0  0
  3 11  1  0  0  0  0
  4  5  1  0  0  0  0
  4 39  1  0  0  0  0
  5  7  1  0  0  0  0
  5  6  2  0  0  0  0
  7  8  1  0  0  0  0
  7  9  1  0  0  0  0
  7 10  1  0  0  0  0
  9 40  1  0  0  0  0
  9 41  1  0  0  0  0
  9 10  1  0  0  0  0
 10 42  1  0  0  0  0
 10 43  1  0  0  0  0
 11 12  2  0  0  0  0
 11 13  1  0  0  0  0
 13 34  1  0  0  0  0
 14 13  1  0  0  0  0
 14 31  1  0  0  0  0
 14 44  1  0  0  0  0
 14 15  1  0  0  0  0
 15 16  2  0  0  0  0
 15 17  1  0  0  0  0
 17 45  1  0  0  0  0
 17 18  1  0  0  0  0
 18 46  1  0  0  0  0
 18 47  1  0  0  0  0
 18 19  1  0  0  0  0
 19 20  1  0  0  0  0
 19 30  2  0  0  0  0
 20 48  1  0  0  0  0
 20 21  2  0  0  0  0
 21 49  1  0  0  0  0
 21 22  1  0  0  0  0
 22 29  2  0  0  0  0
 22 23  1  0  0  0  0
 23 24  2  0  0  0  0
 23 28  1  0  0  0  0
 24 25  1  0  0  0  0
 24 26  1  0  0  0  0
 25 50  1  0  0  0  0
 25 51  1  0  0  0  0
 25 52  1  0  0  0  0
 26 27  2  0  0  0  0
 27 53  1  0  0  0  0
 27 28  1  0  0  0  0
 29 54  1  0  0  0  0
 29 30  1  0  0  0  0
 30 55  1  0  0  0  0
 32 31  1  0  0  0  0
 31 56  1  0  0  0  0
 31 57  1  0  0  0  0
 32 34  1  0  0  0  0
 32 58  1  0  0  0  0
 32 33  1  0  0  0  0
 33 59  1  0  0  0  0
 34 60  1  0  0  0  0
 34 61  1  0  0  0  0
 35 62  1  0  0  0  0
 35 63  1  0  0  0  0
 35 64  1  0  0  0  0
 36 65  1  0  0  0  0
 36 66  1  0  0  0  0
 36 67  1  0  0  0  0
 37 68  1  0  0  0  0
 37 69  1  0  0  0  0
 37 70  1  0  0  0  0
M  ZZC   1 s1
M  ZZC   2 c1
M  ZZC   3 c2
M  ZZC   4 n1
M  ZZC   5 c3
M  ZZC   6 o1
M  ZZC   7 c4
M  ZZC   8 f1
M  ZZC   9 c5
M  ZZC  10 c6
M  ZZC  11 c7
M  ZZC  12 o2
M  ZZC  13 n2
M  ZZC  14 c8
M  ZZC  15 c9
M  ZZC  16 o3
M  ZZC  17 n3
M  ZZC  18 c10
M  ZZC  19 c11
M  ZZC  20 c12
M  ZZC  21 c13
M  ZZC  22 c14
M  ZZC  23 c15
M  ZZC  24 c16
M  ZZC  25 c17
M  ZZC  26 n4
M  ZZC  27 c18
M  ZZC  28 s2
M  ZZC  29 c19
M  ZZC  30 c20
M  ZZC  31 c21
M  ZZC  32 c22
M  ZZC  33 o4
M  ZZC  34 c23
M  ZZC  35 c24
M  ZZC  36 c25
M  ZZC  37 c26
M  ZZC  38 h21
M  ZZC  39 h11
M  ZZC  40 h51
M  ZZC  41 h52
M  ZZC  42 h61
M  ZZC  43 h62
M  ZZC  44 h81
M  ZZC  45 h31
M  ZZC  46 h101
M  ZZC  47 h102
M  ZZC  48 h121
M  ZZC  49 h131
M  ZZC  50 h171
M  ZZC  51 h172
M  ZZC  52 h173
M  ZZC  53 h181
M  ZZC  54 h191
M  ZZC  55 h201
M  ZZC  56 h211
M  ZZC  57 h212
M  ZZC  58 h221
M  ZZC  59 h41
M  ZZC  60 h231
M  ZZC  61 h232
M  ZZC  62 h241
M  ZZC  63 h242
M  ZZC  64 h243
M  ZZC  65 h251
M  ZZC  66 h252
M  ZZC  67 h253
M  ZZC  68 h261
M  ZZC  69 h262
M  ZZC  70 h263
M  ZZM   1 15
M  ZZI   1 253
M  ZZM   2 1
M  ZZI   2 110
M  ZZM   3 1
M  ZZI   3 113
M  ZZM   4 10
M  ZZI   4 211
M  ZZM   5 3
M  ZZI   5 121
M  ZZM   6 7
M  ZZI   6 81
M  ZZM   7 22
M  ZZI   7 109
M  ZZM   8 11
M  ZZI   8 90
M  ZZM   9 22
M  ZZI   9 109
M  ZZM  10 22
M  ZZI  10 109
M  ZZM  11 3
M  ZZI  11 121
M  ZZM  12 7
M  ZZI  12 81
M  ZZM  13 10
M  ZZI  13 192
M  ZZM  14 1
M  ZZI  14 113
M  ZZM  15 3
M  ZZI  15 121
M  ZZM  16 7
M  ZZI  16 81
M  ZZM  17 10
M  ZZI  17 211
M  ZZM  18 1
M  ZZI  18 112
M  ZZM  19 37
M  ZZI  19 124
M  ZZM  20 37
M  ZZI  20 125
M  ZZM  21 37
M  ZZI  21 125
M  ZZM  22 37
M  ZZI  22 124
M  ZZM  23 63
M  ZZI  23 104
M  ZZM  24 64
M  ZZI  24 105
M  ZZM  25 1
M  ZZI  25 111
M  ZZM  26 66
M  ZZI  26 222
M  ZZM  27 63
M  ZZI  27 104
M  ZZM  28 44
M  ZZI  28 248
M  ZZM  29 37
M  ZZI  29 125
M  ZZM  30 37
M  ZZI  30 125
M  ZZM  31 1
M  ZZI  31 112
M  ZZM  32 1
M  ZZI  32 113
M  ZZM  33 6
M  ZZI  33 60
M  ZZM  34 1
M  ZZI  34 112
M  ZZM  35 1
M  ZZI  35 111
M  ZZM  36 1
M  ZZI  36 111
M  ZZM  37 1
M  ZZI  37 111
M  ZZM  38 5
M  ZZI  38 1
M  ZZM  39 28
M  ZZI  39 11
M  ZZM  40 5
M  ZZI  40 1
M  ZZM  41 5
M  ZZI  41 1
M  ZZM  42 5
M  ZZI  42 1
M  ZZM  43 5
M  ZZI  43 1
M  ZZM  44 5
M  ZZI  44 1
M  ZZM  45 28
M  ZZI  45 11
M  ZZM  46 5
M  ZZI  46 1
M  ZZM  47 5
M  ZZI  47 1
M  ZZM  48 5
M  ZZI  48 1
M  ZZM  49 5
M  ZZI  49 1
M  ZZM  50 5
M  ZZI  50 1
M  ZZM  51 5
M  ZZI  51 1
M  ZZM  52 5
M  ZZI  52 1
M  ZZM  53 5
M  ZZI  53 1
M  ZZM  54 5
M  ZZI  54 1
M  ZZM  55 5
M  ZZI  55 1
M  ZZM  56 5
M  ZZI  56 1
M  ZZM  57 5
M  ZZI  57 1
M  ZZM  58 5
M  ZZI  58 1
M  ZZM  59 21
M  ZZI  59 20
M  ZZM  60 5
M  ZZI  60 1
M  ZZM  61 5
M  ZZI  61 1
M  ZZM  62 5
M  ZZI  62 1
M  ZZM  63 5
M  ZZI  63 1
M  ZZM  64 5
M  ZZI  64 1
M  ZZM  65 5
M  ZZI  65 1
M  ZZM  66 5
M  ZZI  66 1
M  ZZM  67 5
M  ZZI  67 1
M  ZZM  68 5
M  ZZI  68 1
M  ZZM  69 5
M  ZZI  69 1
M  ZZM  70 5
M  ZZI  70 1
M  END
> <IX>
1

> <NAME>
VHL_4CI3_31.pdb

> <Score>
-14.855077

> <Natom>
70

> <Nflex>
10

> <Hbond>
-5.232242

> <Hphob>
-6.669819

> <VwInt>
-29.968939

> <Dsolv>
17.674234

> <SolEl>
14.665518

> <Eintl>
6.475492

> <RecConf>
ND

> <projPath>
VHL_maps/

> <NAME_>
VHL_4CI3_31.pdb

$$$$
