VHL_4MKC_4.pdb
  MOLSOFT 04032206393D

 65 67  0  0  1  0  0  0  0  0999 V2000
   13.7081    8.5917   -1.7495 C   0  0  0  0  0  0  0  0  0  0  0  0
   13.2758    7.2960   -2.3786 C   0  0  0  0  0  0  0  0  0  0  0  0
   12.1502    6.8505   -2.2138 O   0  0  0  0  0  0  0  0  0  0  0  0
   14.2782    6.6945   -3.1150 N   0  0  0  0  0  0  0  0  0  0  0  0
   14.0932    5.4323   -3.8389 C   0  0  2  0  0  0  0  0  0  0  0  0
   14.3860    4.1678   -2.9546 C   0  0  0  0  0  0  0  0  0  0  0  0
   13.3538    4.0273   -1.8269 C   0  0  0  0  0  0  0  0  0  0  0  0
   15.7688    4.2058   -2.2755 C   0  0  0  0  0  0  0  0  0  0  0  0
   14.2799    2.8938   -3.8086 C   0  0  0  0  0  0  0  0  0  0  0  0
   14.9870    5.5022   -5.0954 C   0  0  0  0  0  0  0  0  0  0  0  0
   16.1267    5.0583   -5.0926 O   0  0  0  0  0  0  0  0  0  0  0  0
   14.4870    6.1239   -6.2428 N   0  0  0  0  0  0  0  0  0  0  0  0
   15.2642    6.0871   -7.4769 C   0  0  1  0  0  0  0  0  0  0  0  0
   15.1288    4.7296   -8.1816 C   0  0  0  0  0  0  0  0  0  0  0  0
   15.9633    4.3623   -8.9934 O   0  0  0  0  0  0  0  0  0  0  0  0
   13.9735    4.0160   -7.9183 N   0  0  0  0  0  0  0  0  0  0  0  0
   13.6878    2.7153   -8.4928 C   0  0  0  0  0  0  0  0  0  0  0  0
   13.9851    1.5772   -7.5426 C   0  0  0  0  0  0  0  0  0  0  0  0
   15.2938    1.2141   -7.2403 C   0  0  0  0  0  0  0  0  0  0  0  0
   15.5658    0.1904   -6.3449 C   0  0  0  0  0  0  0  0  0  0  0  0
   14.5400   -0.5115   -5.7144 C   0  0  0  0  0  0  0  0  0  0  0  0
   14.8282   -1.5562   -4.7278 C   0  0  0  0  0  0  0  0  0  0  0  0
   15.7576   -2.5923   -4.7279 C   0  0  0  0  0  0  0  0  0  0  0  0
   16.7314   -2.9250   -5.7899 C   0  0  0  0  0  0  0  0  0  0  0  0
   15.7491   -3.3988   -3.6063 N   0  0  0  0  0  0  0  0  0  0  0  0
   14.8392   -2.9744   -2.7621 C   0  0  0  0  0  0  0  0  0  0  0  0
   13.9513   -1.5996   -3.2429 S   0  0  0  0  0  0  0  0  0  0  0  0
   13.2307   -0.1693   -6.0457 C   0  0  0  0  0  0  0  0  0  0  0  0
   12.9607    0.8544   -6.9378 C   0  0  0  0  0  0  0  0  0  0  0  0
   14.7320    7.2435   -8.3129 C   0  0  0  0  0  0  0  0  0  0  0  0
   13.2944    7.3928   -7.8521 C   0  0  1  0  0  0  0  0  0  0  0  0
   12.4783    6.5023   -8.6155 O   0  0  0  0  0  0  0  0  0  0  0  0
   13.3345    7.0025   -6.3726 C   0  0  0  0  0  0  0  0  0  0  0  0
   14.5741    8.4204   -1.1029 H   0  0  0  0  0  0  0  0  0  0  0  0
   12.8911    9.0011   -1.1477 H   0  0  0  0  0  0  0  0  0  0  0  0
   13.9722    9.3118   -2.5303 H   0  0  0  0  0  0  0  0  0  0  0  0
   15.1942    7.1320   -3.1372 H   0  0  0  0  0  0  0  0  0  0  0  0
   13.0499    5.3881   -4.1659 H   0  0  0  0  0  0  0  0  0  0  0  0
   13.4476    4.8322   -1.0942 H   0  0  0  0  0  0  0  0  0  0  0  0
   13.4821    3.0886   -1.2779 H   0  0  0  0  0  0  0  0  0  0  0  0
   12.3318    4.0287   -2.2093 H   0  0  0  0  0  0  0  0  0  0  0  0
   16.5951    4.1772   -2.9884 H   0  0  0  0  0  0  0  0  0  0  0  0
   15.9052    3.3436   -1.6144 H   0  0  0  0  0  0  0  0  0  0  0  0
   15.8943    5.1014   -1.6592 H   0  0  0  0  0  0  0  0  0  0  0  0
   14.3533    1.9901   -3.1952 H   0  0  0  0  0  0  0  0  0  0  0  0
   15.0735    2.8286   -4.5563 H   0  0  0  0  0  0  0  0  0  0  0  0
   13.3238    2.8526   -4.3382 H   0  0  0  0  0  0  0  0  0  0  0  0
   16.3276    6.2272   -7.2513 H   0  0  0  0  0  0  0  0  0  0  0  0
   13.2647    4.4453   -7.3331 H   0  0  0  0  0  0  0  0  0  0  0  0
   12.6315    2.7207   -8.7758 H   0  0  0  0  0  0  0  0  0  0  0  0
   14.2580    2.5886   -9.4166 H   0  0  0  0  0  0  0  0  0  0  0  0
   16.1245    1.7451   -7.6957 H   0  0  0  0  0  0  0  0  0  0  0  0
   16.6048   -0.0350   -6.1243 H   0  0  0  0  0  0  0  0  0  0  0  0
   17.0489   -3.9698   -5.7189 H   0  0  0  0  0  0  0  0  0  0  0  0
   17.6217   -2.2976   -5.6990 H   0  0  0  0  0  0  0  0  0  0  0  0
   16.2940   -2.7766   -6.7816 H   0  0  0  0  0  0  0  0  0  0  0  0
   14.6626   -3.4604   -1.8131 H   0  0  0  0  0  0  0  0  0  0  0  0
   12.3903   -0.7008   -5.6101 H   0  0  0  0  0  0  0  0  0  0  0  0
   11.9227    1.0826   -7.1530 H   0  0  0  0  0  0  0  0  0  0  0  0
   15.2868    8.1557   -8.0667 H   0  0  0  0  0  0  0  0  0  0  0  0
   14.8222    7.0601   -9.3886 H   0  0  0  0  0  0  0  0  0  0  0  0
   12.9041    8.4052   -7.9951 H   0  0  0  0  0  0  0  0  0  0  0  0
   12.4945    6.8228   -9.5373 H   0  0  0  0  0  0  0  0  0  0  0  0
   12.4256    6.5126   -6.0200 H   0  0  0  0  0  0  0  0  0  0  0  0
   13.5235    7.8769   -5.7409 H   0  0  0  0  0  0  0  0  0  0  0  0
  1 34  1  0  0  0  0
  1 35  1  0  0  0  0
  1 36  1  0  0  0  0
  1  2  1  0  0  0  0
  2  3  2  0  0  0  0
  2  4  1  0  0  0  0
  4 37  1  0  0  0  0
  5  4  1  0  0  0  0
  5 38  1  0  0  0  0
  5  6  1  0  0  0  0
  5 10  1  0  0  0  0
  6  7  1  0  0  0  0
  6  8  1  0  0  0  0
  6  9  1  0  0  0  0
  7 39  1  0  0  0  0
  7 40  1  0  0  0  0
  7 41  1  0  0  0  0
  8 42  1  0  0  0  0
  8 43  1  0  0  0  0
  8 44  1  0  0  0  0
  9 45  1  0  0  0  0
  9 46  1  0  0  0  0
  9 47  1  0  0  0  0
 10 11  2  0  0  0  0
 10 12  1  0  0  0  0
 12 33  1  0  0  0  0
 13 12  1  0  0  0  0
 13 30  1  0  0  0  0
 13 48  1  0  0  0  0
 13 14  1  0  0  0  0
 14 15  2  0  0  0  0
 14 16  1  0  0  0  0
 16 49  1  0  0  0  0
 16 17  1  0  0  0  0
 17 50  1  0  0  0  0
 17 51  1  0  0  0  0
 17 18  1  0  0  0  0
 18 19  1  0  0  0  0
 18 29  2  0  0  0  0
 19 52  1  0  0  0  0
 19 20  2  0  0  0  0
 20 53  1  0  0  0  0
 20 21  1  0  0  0  0
 21 28  2  0  0  0  0
 21 22  1  0  0  0  0
 22 23  2  0  0  0  0
 22 27  1  0  0  0  0
 23 24  1  0  0  0  0
 23 25  1  0  0  0  0
 24 54  1  0  0  0  0
 24 55  1  0  0  0  0
 24 56  1  0  0  0  0
 25 26  2  0  0  0  0
 26 57  1  0  0  0  0
 26 27  1  0  0  0  0
 28 58  1  0  0  0  0
 28 29  1  0  0  0  0
 29 59  1  0  0  0  0
 31 30  1  0  0  0  0
 30 60  1  0  0  0  0
 30 61  1  0  0  0  0
 31 33  1  0  0  0  0
 31 62  1  0  0  0  0
 31 32  1  0  0  0  0
 32 63  1  0  0  0  0
 33 64  1  0  0  0  0
 33 65  1  0  0  0  0
M  ZZC   1 c1
M  ZZC   2 c2
M  ZZC   3 o1
M  ZZC   4 n1
M  ZZC   5 c3
M  ZZC   6 c4
M  ZZC   7 c5
M  ZZC   8 c6
M  ZZC   9 c7
M  ZZC  10 c8
M  ZZC  11 o2
M  ZZC  12 n2
M  ZZC  13 c9
M  ZZC  14 c10
M  ZZC  15 o3
M  ZZC  16 n3
M  ZZC  17 c11
M  ZZC  18 c12
M  ZZC  19 c13
M  ZZC  20 c14
M  ZZC  21 c15
M  ZZC  22 c16
M  ZZC  23 c17
M  ZZC  24 c18
M  ZZC  25 n4
M  ZZC  26 c19
M  ZZC  27 s1
M  ZZC  28 c20
M  ZZC  29 c21
M  ZZC  30 c22
M  ZZC  31 c23
M  ZZC  32 o4
M  ZZC  33 c24
M  ZZC  34 h11
M  ZZC  35 h12
M  ZZC  36 h13
M  ZZC  37 h01
M  ZZC  38 h31
M  ZZC  39 h51
M  ZZC  40 h52
M  ZZC  41 h53
M  ZZC  42 h61
M  ZZC  43 h62
M  ZZC  44 h63
M  ZZC  45 h71
M  ZZC  46 h72
M  ZZC  47 h73
M  ZZC  48 h91
M  ZZC  49 h02
M  ZZC  50 h111
M  ZZC  51 h112
M  ZZC  52 h131
M  ZZC  53 h141
M  ZZC  54 h181
M  ZZC  55 h182
M  ZZC  56 h183
M  ZZC  57 h191
M  ZZC  58 h201
M  ZZC  59 h211
M  ZZC  60 h221
M  ZZC  61 h222
M  ZZC  62 h231
M  ZZC  63 h41
M  ZZC  64 h241
M  ZZC  65 h242
M  ZZM   1 1
M  ZZI   1 111
M  ZZM   2 3
M  ZZI   2 121
M  ZZM   3 7
M  ZZI   3 81
M  ZZM   4 10
M  ZZI   4 211
M  ZZM   5 1
M  ZZI   5 113
M  ZZM   6 1
M  ZZI   6 110
M  ZZM   7 1
M  ZZI   7 111
M  ZZM   8 1
M  ZZI   8 111
M  ZZM   9 1
M  ZZI   9 111
M  ZZM  10 3
M  ZZI  10 121
M  ZZM  11 7
M  ZZI  11 81
M  ZZM  12 10
M  ZZI  12 192
M  ZZM  13 1
M  ZZI  13 113
M  ZZM  14 3
M  ZZI  14 121
M  ZZM  15 7
M  ZZI  15 81
M  ZZM  16 10
M  ZZI  16 211
M  ZZM  17 1
M  ZZI  17 112
M  ZZM  18 37
M  ZZI  18 124
M  ZZM  19 37
M  ZZI  19 125
M  ZZM  20 37
M  ZZI  20 125
M  ZZM  21 37
M  ZZI  21 124
M  ZZM  22 63
M  ZZI  22 104
M  ZZM  23 64
M  ZZI  23 105
M  ZZM  24 1
M  ZZI  24 111
M  ZZM  25 66
M  ZZI  25 222
M  ZZM  26 63
M  ZZI  26 104
M  ZZM  27 44
M  ZZI  27 248
M  ZZM  28 37
M  ZZI  28 125
M  ZZM  29 37
M  ZZI  29 125
M  ZZM  30 1
M  ZZI  30 112
M  ZZM  31 1
M  ZZI  31 113
M  ZZM  32 6
M  ZZI  32 60
M  ZZM  33 1
M  ZZI  33 112
M  ZZM  34 5
M  ZZI  34 1
M  ZZM  35 5
M  ZZI  35 1
M  ZZM  36 5
M  ZZI  36 1
M  ZZM  37 28
M  ZZI  37 11
M  ZZM  38 5
M  ZZI  38 1
M  ZZM  39 5
M  ZZI  39 1
M  ZZM  40 5
M  ZZI  40 1
M  ZZM  41 5
M  ZZI  41 1
M  ZZM  42 5
M  ZZI  42 1
M  ZZM  43 5
M  ZZI  43 1
M  ZZM  44 5
M  ZZI  44 1
M  ZZM  45 5
M  ZZI  45 1
M  ZZM  46 5
M  ZZI  46 1
M  ZZM  47 5
M  ZZI  47 1
M  ZZM  48 5
M  ZZI  48 1
M  ZZM  49 28
M  ZZI  49 11
M  ZZM  50 5
M  ZZI  50 1
M  ZZM  51 5
M  ZZI  51 1
M  ZZM  52 5
M  ZZI  52 1
M  ZZM  53 5
M  ZZI  53 1
M  ZZM  54 5
M  ZZI  54 1
M  ZZM  55 5
M  ZZI  55 1
M  ZZM  56 5
M  ZZI  56 1
M  ZZM  57 5
M  ZZI  57 1
M  ZZM  58 5
M  ZZI  58 1
M  ZZM  59 5
M  ZZI  59 1
M  ZZM  60 5
M  ZZI  60 1
M  ZZM  61 5
M  ZZI  61 1
M  ZZM  62 5
M  ZZI  62 1
M  ZZM  63 21
M  ZZI  63 20
M  ZZM  64 5
M  ZZI  64 1
M  ZZM  65 5
M  ZZI  65 1
M  END
> <IX>
1

> <NAME>
VHL_4MKC_4.pdb

> <Score>
-25.491274

> <Natom>
65

> <Nflex>
8

> <Hbond>
-7.598955

> <Hphob>
-6.751836

> <VwInt>
-26.153102

> <Dsolv>
15.647524

> <SolEl>
9.448532

> <Eintl>
2.732066

> <RecConf>
ND

> <projPath>
VHL_maps/

> <NAME_>
VHL_4MKC_4.pdb

$$$$
