VHL_5G0I_8.pdb
  MOLSOFT 04032206393D

 65 67  0  0  1  0  0  0  0  0999 V2000
   18.1198   -6.6528   -5.1253 C   0  0  0  0  0  0  0  0  0  0  0  0
   16.9035   -5.7817   -4.9664 C   0  0  0  0  0  0  0  0  0  0  0  0
   15.8177   -6.1421   -5.3866 O   0  0  0  0  0  0  0  0  0  0  0  0
   17.1459   -4.6028   -4.2891 N   0  0  0  0  0  0  0  0  0  0  0  0
   16.1354   -3.5665   -4.0193 C   0  0  1  0  0  0  0  0  0  0  0  0
   15.8927   -3.3774   -2.4924 C   0  0  0  0  0  0  0  0  0  0  0  0
   14.7865   -2.3594   -2.1913 C   0  0  0  0  0  0  0  0  0  0  0  0
   17.1563   -2.9161   -1.7522 C   0  0  0  0  0  0  0  0  0  0  0  0
   15.4276   -4.7188   -1.9130 C   0  0  0  0  0  0  0  0  0  0  0  0
   16.6279   -2.3244   -4.7920 C   0  0  0  0  0  0  0  0  0  0  0  0
   17.8224   -2.0547   -4.8459 O   0  0  0  0  0  0  0  0  0  0  0  0
   15.6746   -1.5531   -5.4645 N   0  0  0  0  0  0  0  0  0  0  0  0
   16.0670   -0.6412   -6.5289 C   0  0  2  0  0  0  0  0  0  0  0  0
   16.4486    0.7513   -6.0194 C   0  0  0  0  0  0  0  0  0  0  0  0
   15.9250    1.2712   -5.0433 O   0  0  0  0  0  0  0  0  0  0  0  0
   17.3831    1.3848   -6.8174 N   0  0  0  0  0  0  0  0  0  0  0  0
   17.8345    2.7400   -6.5472 C   0  0  0  0  0  0  0  0  0  0  0  0
   19.2441    3.0197   -7.0112 C   0  0  0  0  0  0  0  0  0  0  0  0
   20.1869    2.0063   -7.1285 C   0  0  0  0  0  0  0  0  0  0  0  0
   21.4869    2.2820   -7.4982 C   0  0  0  0  0  0  0  0  0  0  0  0
   21.8996    3.5792   -7.7558 C   0  0  0  0  0  0  0  0  0  0  0  0
   23.2844    3.8394   -8.1151 C   0  0  0  0  0  0  0  0  0  0  0  0
   24.3533    4.2559   -7.3348 C   0  0  0  0  0  0  0  0  0  0  0  0
   24.3242    4.5852   -5.8918 C   0  0  0  0  0  0  0  0  0  0  0  0
   25.5625    4.3363   -7.9963 N   0  0  0  0  0  0  0  0  0  0  0  0
   25.3991    4.0066   -9.2578 C   0  0  0  0  0  0  0  0  0  0  0  0
   23.8127    3.5924   -9.7310 S   0  0  0  0  0  0  0  0  0  0  0  0
   20.9680    4.6029   -7.6371 C   0  0  0  0  0  0  0  0  0  0  0  0
   19.6588    4.3247   -7.2688 C   0  0  0  0  0  0  0  0  0  0  0  0
   14.8305   -0.5706   -7.4109 C   0  0  0  0  0  0  0  0  0  0  0  0
   13.6777   -0.6917   -6.4255 C   0  0  1  0  0  0  0  0  0  0  0  0
   12.5364   -1.3084   -7.0155 O   0  0  0  0  0  0  0  0  0  0  0  0
   14.2284   -1.5812   -5.3240 C   0  0  0  0  0  0  0  0  0  0  0  0
   19.0266   -6.0490   -5.2270 H   0  0  0  0  0  0  0  0  0  0  0  0
   18.0122   -7.2676   -6.0240 H   0  0  0  0  0  0  0  0  0  0  0  0
   18.2062   -7.3052   -4.2532 H   0  0  0  0  0  0  0  0  0  0  0  0
   18.1066   -4.3943   -4.0415 H   0  0  0  0  0  0  0  0  0  0  0  0
   15.2041   -3.9125   -4.4678 H   0  0  0  0  0  0  0  0  0  0  0  0
   15.0661   -1.3553   -2.5271 H   0  0  0  0  0  0  0  0  0  0  0  0
   14.5908   -2.2882   -1.1172 H   0  0  0  0  0  0  0  0  0  0  0  0
   13.8556   -2.6093   -2.7078 H   0  0  0  0  0  0  0  0  0  0  0  0
   16.9786   -2.8298   -0.6754 H   0  0  0  0  0  0  0  0  0  0  0  0
   17.4997   -1.9382   -2.1034 H   0  0  0  0  0  0  0  0  0  0  0  0
   17.9784   -3.6178   -1.8805 H   0  0  0  0  0  0  0  0  0  0  0  0
   15.1706   -4.6204   -0.8555 H   0  0  0  0  0  0  0  0  0  0  0  0
   16.1986   -5.4865   -1.9995 H   0  0  0  0  0  0  0  0  0  0  0  0
   14.5390   -5.0943   -2.4305 H   0  0  0  0  0  0  0  0  0  0  0  0
   16.9152   -1.0634   -7.0778 H   0  0  0  0  0  0  0  0  0  0  0  0
   17.7760    0.8861   -7.6109 H   0  0  0  0  0  0  0  0  0  0  0  0
   17.1330    3.4043   -7.0635 H   0  0  0  0  0  0  0  0  0  0  0  0
   17.7601    2.9391   -5.4728 H   0  0  0  0  0  0  0  0  0  0  0  0
   19.9179    0.9757   -6.9300 H   0  0  0  0  0  0  0  0  0  0  0  0
   22.1851    1.4589   -7.5858 H   0  0  0  0  0  0  0  0  0  0  0  0
   25.2914    4.9722   -5.5585 H   0  0  0  0  0  0  0  0  0  0  0  0
   24.0915    3.7015   -5.2907 H   0  0  0  0  0  0  0  0  0  0  0  0
   23.5604    5.3383   -5.6845 H   0  0  0  0  0  0  0  0  0  0  0  0
   26.2169    3.9985   -9.9641 H   0  0  0  0  0  0  0  0  0  0  0  0
   21.2584    5.6316   -7.8295 H   0  0  0  0  0  0  0  0  0  0  0  0
   18.9555    5.1473   -7.1759 H   0  0  0  0  0  0  0  0  0  0  0  0
   14.7649    0.3445   -8.0089 H   0  0  0  0  0  0  0  0  0  0  0  0
   14.8197   -1.4160   -8.1074 H   0  0  0  0  0  0  0  0  0  0  0  0
   13.3841    0.2864   -6.0275 H   0  0  0  0  0  0  0  0  0  0  0  0
   12.1875   -0.7125   -7.7029 H   0  0  0  0  0  0  0  0  0  0  0  0
   13.8464   -2.6025   -5.3603 H   0  0  0  0  0  0  0  0  0  0  0  0
   13.9562   -1.1559   -4.3580 H   0  0  0  0  0  0  0  0  0  0  0  0
  1 34  1  0  0  0  0
  1 35  1  0  0  0  0
  1 36  1  0  0  0  0
  1  2  1  0  0  0  0
  2  3  2  0  0  0  0
  2  4  1  0  0  0  0
  4 37  1  0  0  0  0
  5  4  1  0  0  0  0
  5 38  1  0  0  0  0
  5  6  1  0  0  0  0
  5 10  1  0  0  0  0
  6  7  1  0  0  0  0
  6  8  1  0  0  0  0
  6  9  1  0  0  0  0
  7 39  1  0  0  0  0
  7 40  1  0  0  0  0
  7 41  1  0  0  0  0
  8 42  1  0  0  0  0
  8 43  1  0  0  0  0
  8 44  1  0  0  0  0
  9 45  1  0  0  0  0
  9 46  1  0  0  0  0
  9 47  1  0  0  0  0
 10 11  2  0  0  0  0
 10 12  1  0  0  0  0
 12 33  1  0  0  0  0
 13 12  1  0  0  0  0
 13 30  1  0  0  0  0
 13 48  1  0  0  0  0
 13 14  1  0  0  0  0
 14 15  2  0  0  0  0
 14 16  1  0  0  0  0
 16 49  1  0  0  0  0
 16 17  1  0  0  0  0
 17 50  1  0  0  0  0
 17 51  1  0  0  0  0
 17 18  1  0  0  0  0
 18 19  1  0  0  0  0
 18 29  2  0  0  0  0
 19 52  1  0  0  0  0
 19 20  2  0  0  0  0
 20 53  1  0  0  0  0
 20 21  1  0  0  0  0
 21 28  2  0  0  0  0
 21 22  1  0  0  0  0
 22 23  2  0  0  0  0
 22 27  1  0  0  0  0
 23 24  1  0  0  0  0
 23 25  1  0  0  0  0
 24 54  1  0  0  0  0
 24 55  1  0  0  0  0
 24 56  1  0  0  0  0
 25 26  2  0  0  0  0
 26 57  1  0  0  0  0
 26 27  1  0  0  0  0
 28 58  1  0  0  0  0
 28 29  1  0  0  0  0
 29 59  1  0  0  0  0
 31 30  1  0  0  0  0
 30 60  1  0  0  0  0
 30 61  1  0  0  0  0
 31 33  1  0  0  0  0
 31 62  1  0  0  0  0
 31 32  1  0  0  0  0
 32 63  1  0  0  0  0
 33 64  1  0  0  0  0
 33 65  1  0  0  0  0
M  ZZC   1 c1
M  ZZC   2 c2
M  ZZC   3 o1
M  ZZC   4 n1
M  ZZC   5 c3
M  ZZC   6 c4
M  ZZC   7 c5
M  ZZC   8 c6
M  ZZC   9 c7
M  ZZC  10 c8
M  ZZC  11 o2
M  ZZC  12 n2
M  ZZC  13 c9
M  ZZC  14 c10
M  ZZC  15 o3
M  ZZC  16 n3
M  ZZC  17 c11
M  ZZC  18 c12
M  ZZC  19 c13
M  ZZC  20 c14
M  ZZC  21 c15
M  ZZC  22 c16
M  ZZC  23 c17
M  ZZC  24 c18
M  ZZC  25 n4
M  ZZC  26 c19
M  ZZC  27 s1
M  ZZC  28 c20
M  ZZC  29 c21
M  ZZC  30 c22
M  ZZC  31 c23
M  ZZC  32 o4
M  ZZC  33 c24
M  ZZC  34 h11
M  ZZC  35 h12
M  ZZC  36 h13
M  ZZC  37 h01
M  ZZC  38 h31
M  ZZC  39 h51
M  ZZC  40 h52
M  ZZC  41 h53
M  ZZC  42 h61
M  ZZC  43 h62
M  ZZC  44 h63
M  ZZC  45 h71
M  ZZC  46 h72
M  ZZC  47 h73
M  ZZC  48 h91
M  ZZC  49 h02
M  ZZC  50 h111
M  ZZC  51 h112
M  ZZC  52 h131
M  ZZC  53 h141
M  ZZC  54 h181
M  ZZC  55 h182
M  ZZC  56 h183
M  ZZC  57 h191
M  ZZC  58 h201
M  ZZC  59 h211
M  ZZC  60 h221
M  ZZC  61 h222
M  ZZC  62 h231
M  ZZC  63 h41
M  ZZC  64 h241
M  ZZC  65 h242
M  ZZM   1 1
M  ZZI   1 111
M  ZZM   2 3
M  ZZI   2 121
M  ZZM   3 7
M  ZZI   3 81
M  ZZM   4 10
M  ZZI   4 211
M  ZZM   5 1
M  ZZI   5 113
M  ZZM   6 1
M  ZZI   6 110
M  ZZM   7 1
M  ZZI   7 111
M  ZZM   8 1
M  ZZI   8 111
M  ZZM   9 1
M  ZZI   9 111
M  ZZM  10 3
M  ZZI  10 121
M  ZZM  11 7
M  ZZI  11 81
M  ZZM  12 10
M  ZZI  12 192
M  ZZM  13 1
M  ZZI  13 113
M  ZZM  14 3
M  ZZI  14 121
M  ZZM  15 7
M  ZZI  15 81
M  ZZM  16 10
M  ZZI  16 211
M  ZZM  17 1
M  ZZI  17 112
M  ZZM  18 37
M  ZZI  18 124
M  ZZM  19 37
M  ZZI  19 125
M  ZZM  20 37
M  ZZI  20 125
M  ZZM  21 37
M  ZZI  21 124
M  ZZM  22 63
M  ZZI  22 104
M  ZZM  23 64
M  ZZI  23 105
M  ZZM  24 1
M  ZZI  24 111
M  ZZM  25 66
M  ZZI  25 222
M  ZZM  26 63
M  ZZI  26 104
M  ZZM  27 44
M  ZZI  27 248
M  ZZM  28 37
M  ZZI  28 125
M  ZZM  29 37
M  ZZI  29 125
M  ZZM  30 1
M  ZZI  30 112
M  ZZM  31 1
M  ZZI  31 113
M  ZZM  32 6
M  ZZI  32 60
M  ZZM  33 1
M  ZZI  33 112
M  ZZM  34 5
M  ZZI  34 1
M  ZZM  35 5
M  ZZI  35 1
M  ZZM  36 5
M  ZZI  36 1
M  ZZM  37 28
M  ZZI  37 11
M  ZZM  38 5
M  ZZI  38 1
M  ZZM  39 5
M  ZZI  39 1
M  ZZM  40 5
M  ZZI  40 1
M  ZZM  41 5
M  ZZI  41 1
M  ZZM  42 5
M  ZZI  42 1
M  ZZM  43 5
M  ZZI  43 1
M  ZZM  44 5
M  ZZI  44 1
M  ZZM  45 5
M  ZZI  45 1
M  ZZM  46 5
M  ZZI  46 1
M  ZZM  47 5
M  ZZI  47 1
M  ZZM  48 5
M  ZZI  48 1
M  ZZM  49 28
M  ZZI  49 11
M  ZZM  50 5
M  ZZI  50 1
M  ZZM  51 5
M  ZZI  51 1
M  ZZM  52 5
M  ZZI  52 1
M  ZZM  53 5
M  ZZI  53 1
M  ZZM  54 5
M  ZZI  54 1
M  ZZM  55 5
M  ZZI  55 1
M  ZZM  56 5
M  ZZI  56 1
M  ZZM  57 5
M  ZZI  57 1
M  ZZM  58 5
M  ZZI  58 1
M  ZZM  59 5
M  ZZI  59 1
M  ZZM  60 5
M  ZZI  60 1
M  ZZM  61 5
M  ZZI  61 1
M  ZZM  62 5
M  ZZI  62 1
M  ZZM  63 21
M  ZZI  63 20
M  ZZM  64 5
M  ZZI  64 1
M  ZZM  65 5
M  ZZI  65 1
M  END
> <IX>
1

> <NAME>
VHL_5G0I_8.pdb

> <Score>
-11.583505

> <Natom>
65

> <Nflex>
8

> <Hbond>
-4.961798

> <Hphob>
-6.455288

> <VwInt>
-28.163038

> <Dsolv>
16.787265

> <SolEl>
16.925502

> <Eintl>
8.161074

> <RecConf>
ND

> <projPath>
VHL_maps/

> <NAME_>
VHL_5G0I_8.pdb

$$$$
