VHL_5EHR_18.pdb
  MOLSOFT 04032206403D

 68 70  0  0  1  0  0  0  0  0999 V2000
   18.5911    2.0264   -4.2197 C   0  0  0  0  0  0  0  0  0  0  0  0
   17.9958    0.8035   -4.8676 C   0  0  0  0  0  0  0  0  0  0  0  0
   18.7018   -0.0904   -5.3079 O   0  0  0  0  0  0  0  0  0  0  0  0
   16.6167    0.8055   -4.8878 N   0  0  0  0  0  0  0  0  0  0  0  0
   15.8333   -0.2922   -5.4586 C   0  0  2  0  0  0  0  0  0  0  0  0
   14.8792    0.1933   -6.5887 C   0  0  0  0  0  0  0  0  0  0  0  0
   15.7202    0.6096   -7.8064 C   0  0  0  0  0  0  0  0  0  0  0  0
   13.9970    1.3910   -6.1873 C   0  0  0  0  0  0  0  0  0  0  0  0
   13.9606   -0.9554   -7.0172 C   0  0  0  0  0  0  0  0  0  0  0  0
   15.1070   -0.9548   -4.2733 C   0  0  0  0  0  0  0  0  0  0  0  0
   14.2299   -0.3667   -3.6539 O   0  0  0  0  0  0  0  0  0  0  0  0
   15.5390   -2.2231   -3.8837 N   0  0  0  0  0  0  0  0  0  0  0  0
   14.9191   -2.9179   -2.7617 C   0  0  2  0  0  0  0  0  0  0  0  0
   15.4096   -2.2869   -1.4524 C   0  0  0  0  0  0  0  0  0  0  0  0
   16.5973   -2.1308   -1.2009 O   0  0  0  0  0  0  0  0  0  0  0  0
   14.3910   -1.8910   -0.6033 N   0  0  0  0  0  0  0  0  0  0  0  0
   14.6412   -1.1895    0.6485 C   0  0  1  0  0  0  0  0  0  0  0  0
   13.6595   -0.0242    0.7685 C   0  0  0  0  0  0  0  0  0  0  0  0
   14.6493   -2.1509    1.8270 C   0  0  0  0  0  0  0  0  0  0  0  0
   13.6440   -2.1973    2.7935 C   0  0  0  0  0  0  0  0  0  0  0  0
   13.6990   -3.0984    3.8451 C   0  0  0  0  0  0  0  0  0  0  0  0
   14.7500   -4.0004    3.9709 C   0  0  0  0  0  0  0  0  0  0  0  0
   14.7772   -4.9920    5.0468 C   0  0  0  0  0  0  0  0  0  0  0  0
   13.7731   -5.8005    5.5733 C   0  0  0  0  0  0  0  0  0  0  0  0
   12.3537   -5.8750    5.1530 C   0  0  0  0  0  0  0  0  0  0  0  0
   14.1683   -6.6365    6.5987 N   0  0  0  0  0  0  0  0  0  0  0  0
   15.4469   -6.4679    6.8432 C   0  0  0  0  0  0  0  0  0  0  0  0
   16.2500   -5.3096    5.8840 S   0  0  0  0  0  0  0  0  0  0  0  0
   15.7627   -3.9442    3.0186 C   0  0  0  0  0  0  0  0  0  0  0  0
   15.7111   -3.0398    1.9736 C   0  0  0  0  0  0  0  0  0  0  0  0
   15.4010   -4.3560   -2.8947 C   0  0  0  0  0  0  0  0  0  0  0  0
   16.7632   -4.2148   -3.5505 C   0  0  1  0  0  0  0  0  0  0  0  0
   17.1230   -5.4036   -4.2503 O   0  0  0  0  0  0  0  0  0  0  0  0
   16.5903   -3.0266   -4.4847 C   0  0  0  0  0  0  0  0  0  0  0  0
   17.8529    2.8274   -4.1183 H   0  0  0  0  0  0  0  0  0  0  0  0
   19.4155    2.3958   -4.8363 H   0  0  0  0  0  0  0  0  0  0  0  0
   18.9669    1.7598   -3.2276 H   0  0  0  0  0  0  0  0  0  0  0  0
   16.1182    1.5531   -4.4160 H   0  0  0  0  0  0  0  0  0  0  0  0
   16.5294   -1.0092   -5.8998 H   0  0  0  0  0  0  0  0  0  0  0  0
   16.3938    1.4395   -7.5721 H   0  0  0  0  0  0  0  0  0  0  0  0
   15.0842    0.9383   -8.6331 H   0  0  0  0  0  0  0  0  0  0  0  0
   16.3335   -0.2188   -8.1766 H   0  0  0  0  0  0  0  0  0  0  0  0
   13.3254    1.1533   -5.3587 H   0  0  0  0  0  0  0  0  0  0  0  0
   13.3623    1.7070   -7.0218 H   0  0  0  0  0  0  0  0  0  0  0  0
   14.5905    2.2635   -5.8991 H   0  0  0  0  0  0  0  0  0  0  0  0
   13.2838   -0.6396   -7.8147 H   0  0  0  0  0  0  0  0  0  0  0  0
   13.3265   -1.3043   -6.1966 H   0  0  0  0  0  0  0  0  0  0  0  0
   14.5409   -1.8091   -7.3835 H   0  0  0  0  0  0  0  0  0  0  0  0
   13.8279   -2.8453   -2.8355 H   0  0  0  0  0  0  0  0  0  0  0  0
   13.4278   -2.0884   -0.8494 H   0  0  0  0  0  0  0  0  0  0  0  0
   15.6411   -0.7445    0.5927 H   0  0  0  0  0  0  0  0  0  0  0  0
   13.7721    0.6640   -0.0753 H   0  0  0  0  0  0  0  0  0  0  0  0
   13.8214    0.5469    1.6882 H   0  0  0  0  0  0  0  0  0  0  0  0
   12.6197   -0.3661    0.7565 H   0  0  0  0  0  0  0  0  0  0  0  0
   12.7921   -1.5267    2.7460 H   0  0  0  0  0  0  0  0  0  0  0  0
   12.8992   -3.0844    4.5785 H   0  0  0  0  0  0  0  0  0  0  0  0
   11.7537   -5.1197    5.6690 H   0  0  0  0  0  0  0  0  0  0  0  0
   11.9148   -6.8494    5.3787 H   0  0  0  0  0  0  0  0  0  0  0  0
   12.2654   -5.6978    4.0779 H   0  0  0  0  0  0  0  0  0  0  0  0
   15.9678   -7.0257    7.6084 H   0  0  0  0  0  0  0  0  0  0  0  0
   16.6052   -4.6282    3.0628 H   0  0  0  0  0  0  0  0  0  0  0  0
   16.5250   -3.0388    1.2548 H   0  0  0  0  0  0  0  0  0  0  0  0
   15.4558   -4.8907   -1.9406 H   0  0  0  0  0  0  0  0  0  0  0  0
   14.7307   -4.9309   -3.5418 H   0  0  0  0  0  0  0  0  0  0  0  0
   17.5247   -4.0045   -2.7931 H   0  0  0  0  0  0  0  0  0  0  0  0
   18.0686   -5.3233   -4.4748 H   0  0  0  0  0  0  0  0  0  0  0  0
   16.2815   -3.3267   -5.4920 H   0  0  0  0  0  0  0  0  0  0  0  0
   17.5162   -2.4507   -4.5705 H   0  0  0  0  0  0  0  0  0  0  0  0
  1 35  1  0  0  0  0
  1 36  1  0  0  0  0
  1 37  1  0  0  0  0
  1  2  1  0  0  0  0
  2  3  2  0  0  0  0
  2  4  1  0  0  0  0
  4 38  1  0  0  0  0
  5  4  1  0  0  0  0
  5 39  1  0  0  0  0
  5  6  1  0  0  0  0
  5 10  1  0  0  0  0
  6  7  1  0  0  0  0
  6  8  1  0  0  0  0
  6  9  1  0  0  0  0
  7 40  1  0  0  0  0
  7 41  1  0  0  0  0
  7 42  1  0  0  0  0
  8 43  1  0  0  0  0
  8 44  1  0  0  0  0
  8 45  1  0  0  0  0
  9 46  1  0  0  0  0
  9 47  1  0  0  0  0
  9 48  1  0  0  0  0
 10 11  2  0  0  0  0
 10 12  1  0  0  0  0
 12 34  1  0  0  0  0
 13 12  1  0  0  0  0
 13 31  1  0  0  0  0
 13 49  1  0  0  0  0
 13 14  1  0  0  0  0
 14 15  2  0  0  0  0
 14 16  1  0  0  0  0
 16 50  1  0  0  0  0
 17 16  1  0  0  0  0
 17 51  1  0  0  0  0
 17 18  1  0  0  0  0
 17 19  1  0  0  0  0
 18 52  1  0  0  0  0
 18 53  1  0  0  0  0
 18 54  1  0  0  0  0
 19 20  1  0  0  0  0
 19 30  2  0  0  0  0
 20 55  1  0  0  0  0
 20 21  2  0  0  0  0
 21 56  1  0  0  0  0
 21 22  1  0  0  0  0
 22 29  2  0  0  0  0
 22 23  1  0  0  0  0
 23 24  2  0  0  0  0
 23 28  1  0  0  0  0
 24 25  1  0  0  0  0
 24 26  1  0  0  0  0
 25 57  1  0  0  0  0
 25 58  1  0  0  0  0
 25 59  1  0  0  0  0
 26 27  2  0  0  0  0
 27 60  1  0  0  0  0
 27 28  1  0  0  0  0
 29 61  1  0  0  0  0
 29 30  1  0  0  0  0
 30 62  1  0  0  0  0
 32 31  1  0  0  0  0
 31 63  1  0  0  0  0
 31 64  1  0  0  0  0
 32 34  1  0  0  0  0
 32 65  1  0  0  0  0
 32 33  1  0  0  0  0
 33 66  1  0  0  0  0
 34 67  1  0  0  0  0
 34 68  1  0  0  0  0
M  ZZC   1 c1
M  ZZC   2 c2
M  ZZC   3 o1
M  ZZC   4 n1
M  ZZC   5 c3
M  ZZC   6 c4
M  ZZC   7 c5
M  ZZC   8 c6
M  ZZC   9 c7
M  ZZC  10 c8
M  ZZC  11 o2
M  ZZC  12 n2
M  ZZC  13 c9
M  ZZC  14 c10
M  ZZC  15 o3
M  ZZC  16 n3
M  ZZC  17 c11
M  ZZC  18 c12
M  ZZC  19 c13
M  ZZC  20 c14
M  ZZC  21 c15
M  ZZC  22 c16
M  ZZC  23 c17
M  ZZC  24 c18
M  ZZC  25 c19
M  ZZC  26 n4
M  ZZC  27 c20
M  ZZC  28 s1
M  ZZC  29 c21
M  ZZC  30 c22
M  ZZC  31 c23
M  ZZC  32 c24
M  ZZC  33 o4
M  ZZC  34 c25
M  ZZC  35 h11
M  ZZC  36 h12
M  ZZC  37 h13
M  ZZC  38 h01
M  ZZC  39 h31
M  ZZC  40 h51
M  ZZC  41 h52
M  ZZC  42 h53
M  ZZC  43 h61
M  ZZC  44 h62
M  ZZC  45 h63
M  ZZC  46 h71
M  ZZC  47 h72
M  ZZC  48 h73
M  ZZC  49 h91
M  ZZC  50 h02
M  ZZC  51 h111
M  ZZC  52 h121
M  ZZC  53 h122
M  ZZC  54 h123
M  ZZC  55 h141
M  ZZC  56 h151
M  ZZC  57 h191
M  ZZC  58 h192
M  ZZC  59 h193
M  ZZC  60 h201
M  ZZC  61 h211
M  ZZC  62 h221
M  ZZC  63 h231
M  ZZC  64 h232
M  ZZC  65 h241
M  ZZC  66 h41
M  ZZC  67 h251
M  ZZC  68 h252
M  ZZM   1 1
M  ZZI   1 111
M  ZZM   2 3
M  ZZI   2 121
M  ZZM   3 7
M  ZZI   3 81
M  ZZM   4 10
M  ZZI   4 211
M  ZZM   5 1
M  ZZI   5 113
M  ZZM   6 1
M  ZZI   6 110
M  ZZM   7 1
M  ZZI   7 111
M  ZZM   8 1
M  ZZI   8 111
M  ZZM   9 1
M  ZZI   9 111
M  ZZM  10 3
M  ZZI  10 121
M  ZZM  11 7
M  ZZI  11 81
M  ZZM  12 10
M  ZZI  12 192
M  ZZM  13 1
M  ZZI  13 113
M  ZZM  14 3
M  ZZI  14 121
M  ZZM  15 7
M  ZZI  15 81
M  ZZM  16 10
M  ZZI  16 211
M  ZZM  17 1
M  ZZI  17 113
M  ZZM  18 1
M  ZZI  18 111
M  ZZM  19 37
M  ZZI  19 124
M  ZZM  20 37
M  ZZI  20 125
M  ZZM  21 37
M  ZZI  21 125
M  ZZM  22 37
M  ZZI  22 124
M  ZZM  23 63
M  ZZI  23 104
M  ZZM  24 64
M  ZZI  24 105
M  ZZM  25 1
M  ZZI  25 111
M  ZZM  26 66
M  ZZI  26 222
M  ZZM  27 63
M  ZZI  27 104
M  ZZM  28 44
M  ZZI  28 248
M  ZZM  29 37
M  ZZI  29 125
M  ZZM  30 37
M  ZZI  30 125
M  ZZM  31 1
M  ZZI  31 112
M  ZZM  32 1
M  ZZI  32 113
M  ZZM  33 6
M  ZZI  33 60
M  ZZM  34 1
M  ZZI  34 112
M  ZZM  35 5
M  ZZI  35 1
M  ZZM  36 5
M  ZZI  36 1
M  ZZM  37 5
M  ZZI  37 1
M  ZZM  38 28
M  ZZI  38 11
M  ZZM  39 5
M  ZZI  39 1
M  ZZM  40 5
M  ZZI  40 1
M  ZZM  41 5
M  ZZI  41 1
M  ZZM  42 5
M  ZZI  42 1
M  ZZM  43 5
M  ZZI  43 1
M  ZZM  44 5
M  ZZI  44 1
M  ZZM  45 5
M  ZZI  45 1
M  ZZM  46 5
M  ZZI  46 1
M  ZZM  47 5
M  ZZI  47 1
M  ZZM  48 5
M  ZZI  48 1
M  ZZM  49 5
M  ZZI  49 1
M  ZZM  50 28
M  ZZI  50 11
M  ZZM  51 5
M  ZZI  51 1
M  ZZM  52 5
M  ZZI  52 1
M  ZZM  53 5
M  ZZI  53 1
M  ZZM  54 5
M  ZZI  54 1
M  ZZM  55 5
M  ZZI  55 1
M  ZZM  56 5
M  ZZI  56 1
M  ZZM  57 5
M  ZZI  57 1
M  ZZM  58 5
M  ZZI  58 1
M  ZZM  59 5
M  ZZI  59 1
M  ZZM  60 5
M  ZZI  60 1
M  ZZM  61 5
M  ZZI  61 1
M  ZZM  62 5
M  ZZI  62 1
M  ZZM  63 5
M  ZZI  63 1
M  ZZM  64 5
M  ZZI  64 1
M  ZZM  65 5
M  ZZI  65 1
M  ZZM  66 21
M  ZZI  66 20
M  ZZM  67 5
M  ZZI  67 1
M  ZZM  68 5
M  ZZI  68 1
M  END
> <IX>
1

> <NAME>
VHL_5EHR_18.pdb

> <Score>
-11.88617

> <Natom>
68

> <Nflex>
8

> <Hbond>
-3.936276

> <Hphob>
-6.466339

> <VwInt>
-29.310313

> <Dsolv>
17.477867

> <SolEl>
15.422477

> <Eintl>
6.046888

> <RecConf>
ND

> <projPath>
VHL_maps/

> <NAME_>
VHL_5EHR_18.pdb

$$$$
