VHL_6W8L_6.pdb
  MOLSOFT 04032206423D

 65 67  0  0  1  0  0  0  0  0999 V2000
   18.1125   -6.6480   -5.1159 C   0  0  0  0  0  0  0  0  0  0  0  0
   16.8987   -5.7737   -4.9582 C   0  0  0  0  0  0  0  0  0  0  0  0
   15.8131   -6.1290   -5.3836 O   0  0  0  0  0  0  0  0  0  0  0  0
   17.1425   -4.5986   -4.2748 N   0  0  0  0  0  0  0  0  0  0  0  0
   16.1349   -3.5587   -4.0083 C   0  0  1  0  0  0  0  0  0  0  0  0
   15.8984   -3.3580   -2.4816 C   0  0  0  0  0  0  0  0  0  0  0  0
   15.4337   -4.6943   -1.8905 C   0  0  0  0  0  0  0  0  0  0  0  0
   14.7955   -2.3357   -2.1831 C   0  0  0  0  0  0  0  0  0  0  0  0
   17.1662   -2.8952   -1.7493 C   0  0  0  0  0  0  0  0  0  0  0  0
   16.6265   -2.3220   -4.7900 C   0  0  0  0  0  0  0  0  0  0  0  0
   17.8210   -2.0533   -4.8480 O   0  0  0  0  0  0  0  0  0  0  0  0
   15.6724   -1.5529   -5.4641 N   0  0  0  0  0  0  0  0  0  0  0  0
   16.0635   -0.6418   -6.5299 C   0  0  2  0  0  0  0  0  0  0  0  0
   16.4441    0.7506   -6.0196 C   0  0  0  0  0  0  0  0  0  0  0  0
   15.9138    1.2738   -5.0489 O   0  0  0  0  0  0  0  0  0  0  0  0
   17.3870    1.3806   -6.8105 N   0  0  0  0  0  0  0  0  0  0  0  0
   17.8388    2.7352   -6.5383 C   0  0  0  0  0  0  0  0  0  0  0  0
   19.2476    3.0164   -7.0042 C   0  0  0  0  0  0  0  0  0  0  0  0
   19.6636    4.3227   -7.2527 C   0  0  0  0  0  0  0  0  0  0  0  0
   20.9728    4.6022   -7.6205 C   0  0  0  0  0  0  0  0  0  0  0  0
   21.9027    3.5781   -7.7489 C   0  0  0  0  0  0  0  0  0  0  0  0
   23.2879    3.8391   -8.1061 C   0  0  0  0  0  0  0  0  0  0  0  0
   24.3540    4.2620   -7.3251 C   0  0  0  0  0  0  0  0  0  0  0  0
   24.3209    4.5953   -5.8831 C   0  0  0  0  0  0  0  0  0  0  0  0
   25.5642    4.3438   -7.9845 N   0  0  0  0  0  0  0  0  0  0  0  0
   25.4047    4.0082   -9.2449 C   0  0  0  0  0  0  0  0  0  0  0  0
   23.8207    3.5866   -9.7198 S   0  0  0  0  0  0  0  0  0  0  0  0
   21.4886    2.2796   -7.5001 C   0  0  0  0  0  0  0  0  0  0  0  0
   20.1890    2.0028   -7.1302 C   0  0  0  0  0  0  0  0  0  0  0  0
   14.8261   -0.5728   -7.4106 C   0  0  0  0  0  0  0  0  0  0  0  0
   13.6742   -0.6932   -6.4240 C   0  0  1  0  0  0  0  0  0  0  0  0
   12.5327   -1.3108   -7.0127 O   0  0  0  0  0  0  0  0  0  0  0  0
   14.2263   -1.5814   -5.3219 C   0  0  0  0  0  0  0  0  0  0  0  0
   19.0199   -6.0472   -5.2289 H   0  0  0  0  0  0  0  0  0  0  0  0
   17.9991   -7.2707   -6.0085 H   0  0  0  0  0  0  0  0  0  0  0  0
   18.2032   -7.2935   -4.2391 H   0  0  0  0  0  0  0  0  0  0  0  0
   18.1032   -4.3939   -4.0246 H   0  0  0  0  0  0  0  0  0  0  0  0
   15.2014   -3.9057   -4.4519 H   0  0  0  0  0  0  0  0  0  0  0  0
   15.1792   -4.5872   -0.8331 H   0  0  0  0  0  0  0  0  0  0  0  0
   16.2040   -5.4631   -1.9726 H   0  0  0  0  0  0  0  0  0  0  0  0
   14.5436   -5.0729   -2.4029 H   0  0  0  0  0  0  0  0  0  0  0  0
   15.0780   -1.3302   -2.5072 H   0  0  0  0  0  0  0  0  0  0  0  0
   14.5931   -2.2688   -1.1090 H   0  0  0  0  0  0  0  0  0  0  0  0
   13.8525   -2.6140   -2.6633 H   0  0  0  0  0  0  0  0  0  0  0  0
   16.9915   -2.7973   -0.6729 H   0  0  0  0  0  0  0  0  0  0  0  0
   17.5129   -1.9223   -2.1109 H   0  0  0  0  0  0  0  0  0  0  0  0
   17.9847   -3.6021   -1.8721 H   0  0  0  0  0  0  0  0  0  0  0  0
   16.9114   -1.0642   -7.0791 H   0  0  0  0  0  0  0  0  0  0  0  0
   17.7823    0.8811   -7.6023 H   0  0  0  0  0  0  0  0  0  0  0  0
   17.1361    3.4010   -7.0511 H   0  0  0  0  0  0  0  0  0  0  0  0
   17.7664    2.9310   -5.4631 H   0  0  0  0  0  0  0  0  0  0  0  0
   18.9614    5.1454   -7.1522 H   0  0  0  0  0  0  0  0  0  0  0  0
   21.2644    5.6319   -7.8050 H   0  0  0  0  0  0  0  0  0  0  0  0
   25.2850    4.9885   -5.5478 H   0  0  0  0  0  0  0  0  0  0  0  0
   24.1004    3.7059   -5.2880 H   0  0  0  0  0  0  0  0  0  0  0  0
   23.5593    5.3515   -5.6726 H   0  0  0  0  0  0  0  0  0  0  0  0
   26.2241    3.9993   -9.9492 H   0  0  0  0  0  0  0  0  0  0  0  0
   22.1859    1.4564   -7.5936 H   0  0  0  0  0  0  0  0  0  0  0  0
   19.9198    0.9712   -6.9374 H   0  0  0  0  0  0  0  0  0  0  0  0
   14.7599    0.3413   -8.0100 H   0  0  0  0  0  0  0  0  0  0  0  0
   14.8150   -1.4194   -8.1057 H   0  0  0  0  0  0  0  0  0  0  0  0
   13.3806    0.2853   -6.0268 H   0  0  0  0  0  0  0  0  0  0  0  0
   12.1841   -0.7162   -7.7014 H   0  0  0  0  0  0  0  0  0  0  0  0
   13.8450   -2.6031   -5.3571 H   0  0  0  0  0  0  0  0  0  0  0  0
   13.9546   -1.1554   -4.3562 H   0  0  0  0  0  0  0  0  0  0  0  0
  1 34  1  0  0  0  0
  1 35  1  0  0  0  0
  1 36  1  0  0  0  0
  1  2  1  0  0  0  0
  2  3  2  0  0  0  0
  2  4  1  0  0  0  0
  4 37  1  0  0  0  0
  5  4  1  0  0  0  0
  5 38  1  0  0  0  0
  5  6  1  0  0  0  0
  5 10  1  0  0  0  0
  6  7  1  0  0  0  0
  6  8  1  0  0  0  0
  6  9  1  0  0  0  0
  7 39  1  0  0  0  0
  7 40  1  0  0  0  0
  7 41  1  0  0  0  0
  8 42  1  0  0  0  0
  8 43  1  0  0  0  0
  8 44  1  0  0  0  0
  9 45  1  0  0  0  0
  9 46  1  0  0  0  0
  9 47  1  0  0  0  0
 10 11  2  0  0  0  0
 10 12  1  0  0  0  0
 12 33  1  0  0  0  0
 13 12  1  0  0  0  0
 13 30  1  0  0  0  0
 13 48  1  0  0  0  0
 13 14  1  0  0  0  0
 14 15  2  0  0  0  0
 14 16  1  0  0  0  0
 16 49  1  0  0  0  0
 16 17  1  0  0  0  0
 17 50  1  0  0  0  0
 17 51  1  0  0  0  0
 17 18  1  0  0  0  0
 18 19  1  0  0  0  0
 18 29  2  0  0  0  0
 19 52  1  0  0  0  0
 19 20  2  0  0  0  0
 20 53  1  0  0  0  0
 20 21  1  0  0  0  0
 21 28  2  0  0  0  0
 21 22  1  0  0  0  0
 22 23  2  0  0  0  0
 22 27  1  0  0  0  0
 23 24  1  0  0  0  0
 23 25  1  0  0  0  0
 24 54  1  0  0  0  0
 24 55  1  0  0  0  0
 24 56  1  0  0  0  0
 25 26  2  0  0  0  0
 26 57  1  0  0  0  0
 26 27  1  0  0  0  0
 28 58  1  0  0  0  0
 28 29  1  0  0  0  0
 29 59  1  0  0  0  0
 31 30  1  0  0  0  0
 30 60  1  0  0  0  0
 30 61  1  0  0  0  0
 31 33  1  0  0  0  0
 31 62  1  0  0  0  0
 31 32  1  0  0  0  0
 32 63  1  0  0  0  0
 33 64  1  0  0  0  0
 33 65  1  0  0  0  0
M  ZZC   1 c1
M  ZZC   2 c2
M  ZZC   3 o1
M  ZZC   4 n1
M  ZZC   5 c3
M  ZZC   6 c4
M  ZZC   7 c5
M  ZZC   8 c6
M  ZZC   9 c7
M  ZZC  10 c8
M  ZZC  11 o2
M  ZZC  12 n2
M  ZZC  13 c9
M  ZZC  14 c10
M  ZZC  15 o3
M  ZZC  16 n3
M  ZZC  17 c11
M  ZZC  18 c12
M  ZZC  19 c13
M  ZZC  20 c14
M  ZZC  21 c15
M  ZZC  22 c16
M  ZZC  23 c17
M  ZZC  24 c18
M  ZZC  25 n4
M  ZZC  26 c19
M  ZZC  27 s1
M  ZZC  28 c20
M  ZZC  29 c21
M  ZZC  30 c22
M  ZZC  31 c23
M  ZZC  32 o4
M  ZZC  33 c24
M  ZZC  34 h11
M  ZZC  35 h12
M  ZZC  36 h13
M  ZZC  37 h01
M  ZZC  38 h31
M  ZZC  39 h51
M  ZZC  40 h52
M  ZZC  41 h53
M  ZZC  42 h61
M  ZZC  43 h62
M  ZZC  44 h63
M  ZZC  45 h71
M  ZZC  46 h72
M  ZZC  47 h73
M  ZZC  48 h91
M  ZZC  49 h02
M  ZZC  50 h111
M  ZZC  51 h112
M  ZZC  52 h131
M  ZZC  53 h141
M  ZZC  54 h181
M  ZZC  55 h182
M  ZZC  56 h183
M  ZZC  57 h191
M  ZZC  58 h201
M  ZZC  59 h211
M  ZZC  60 h221
M  ZZC  61 h222
M  ZZC  62 h231
M  ZZC  63 h41
M  ZZC  64 h241
M  ZZC  65 h242
M  ZZM   1 1
M  ZZI   1 111
M  ZZM   2 3
M  ZZI   2 121
M  ZZM   3 7
M  ZZI   3 81
M  ZZM   4 10
M  ZZI   4 211
M  ZZM   5 1
M  ZZI   5 113
M  ZZM   6 1
M  ZZI   6 110
M  ZZM   7 1
M  ZZI   7 111
M  ZZM   8 1
M  ZZI   8 111
M  ZZM   9 1
M  ZZI   9 111
M  ZZM  10 3
M  ZZI  10 121
M  ZZM  11 7
M  ZZI  11 81
M  ZZM  12 10
M  ZZI  12 192
M  ZZM  13 1
M  ZZI  13 113
M  ZZM  14 3
M  ZZI  14 121
M  ZZM  15 7
M  ZZI  15 81
M  ZZM  16 10
M  ZZI  16 211
M  ZZM  17 1
M  ZZI  17 112
M  ZZM  18 37
M  ZZI  18 124
M  ZZM  19 37
M  ZZI  19 125
M  ZZM  20 37
M  ZZI  20 125
M  ZZM  21 37
M  ZZI  21 124
M  ZZM  22 63
M  ZZI  22 104
M  ZZM  23 64
M  ZZI  23 105
M  ZZM  24 1
M  ZZI  24 111
M  ZZM  25 66
M  ZZI  25 222
M  ZZM  26 63
M  ZZI  26 104
M  ZZM  27 44
M  ZZI  27 248
M  ZZM  28 37
M  ZZI  28 125
M  ZZM  29 37
M  ZZI  29 125
M  ZZM  30 1
M  ZZI  30 112
M  ZZM  31 1
M  ZZI  31 113
M  ZZM  32 6
M  ZZI  32 60
M  ZZM  33 1
M  ZZI  33 112
M  ZZM  34 5
M  ZZI  34 1
M  ZZM  35 5
M  ZZI  35 1
M  ZZM  36 5
M  ZZI  36 1
M  ZZM  37 28
M  ZZI  37 11
M  ZZM  38 5
M  ZZI  38 1
M  ZZM  39 5
M  ZZI  39 1
M  ZZM  40 5
M  ZZI  40 1
M  ZZM  41 5
M  ZZI  41 1
M  ZZM  42 5
M  ZZI  42 1
M  ZZM  43 5
M  ZZI  43 1
M  ZZM  44 5
M  ZZI  44 1
M  ZZM  45 5
M  ZZI  45 1
M  ZZM  46 5
M  ZZI  46 1
M  ZZM  47 5
M  ZZI  47 1
M  ZZM  48 5
M  ZZI  48 1
M  ZZM  49 28
M  ZZI  49 11
M  ZZM  50 5
M  ZZI  50 1
M  ZZM  51 5
M  ZZI  51 1
M  ZZM  52 5
M  ZZI  52 1
M  ZZM  53 5
M  ZZI  53 1
M  ZZM  54 5
M  ZZI  54 1
M  ZZM  55 5
M  ZZI  55 1
M  ZZM  56 5
M  ZZI  56 1
M  ZZM  57 5
M  ZZI  57 1
M  ZZM  58 5
M  ZZI  58 1
M  ZZM  59 5
M  ZZI  59 1
M  ZZM  60 5
M  ZZI  60 1
M  ZZM  61 5
M  ZZI  61 1
M  ZZM  62 5
M  ZZI  62 1
M  ZZM  63 21
M  ZZI  63 20
M  ZZM  64 5
M  ZZI  64 1
M  ZZM  65 5
M  ZZI  65 1
M  END
> <IX>
1

> <NAME>
VHL_6W8L_6.pdb

> <Score>
-11.953748

> <Natom>
65

> <Nflex>
8

> <Hbond>
-4.960229

> <Hphob>
-6.521385

> <VwInt>
-28.144089

> <Dsolv>
16.669483

> <SolEl>
17.170167

> <Eintl>
7.457711

> <RecConf>
ND

> <projPath>
VHL_maps/

> <NAME_>
VHL_6W8L_6.pdb

$$$$
