VHL_5GMP_12.pdb
  MOLSOFT 04032206423D

 65 67  0  0  1  0  0  0  0  0999 V2000
   17.2843   -6.2439   -4.3718 C   0  0  0  0  0  0  0  0  0  0  0  0
   16.4508   -5.1364   -3.7800 C   0  0  0  0  0  0  0  0  0  0  0  0
   15.3474   -5.3391   -3.2974 O   0  0  0  0  0  0  0  0  0  0  0  0
   17.0362   -3.8916   -3.8672 N   0  0  0  0  0  0  0  0  0  0  0  0
   16.2978   -2.6643   -3.5570 C   0  0  1  0  0  0  0  0  0  0  0  0
   16.5672   -2.0942   -2.1309 C   0  0  0  0  0  0  0  0  0  0  0  0
   15.5960   -0.9380   -1.8449 C   0  0  0  0  0  0  0  0  0  0  0  0
   16.3234   -3.1760   -1.0650 C   0  0  0  0  0  0  0  0  0  0  0  0
   18.0017   -1.5700   -1.9662 C   0  0  0  0  0  0  0  0  0  0  0  0
   16.6637   -1.6991   -4.7024 C   0  0  0  0  0  0  0  0  0  0  0  0
   17.8349   -1.4657   -4.9780 O   0  0  0  0  0  0  0  0  0  0  0  0
   15.6103   -1.1524   -5.4344 N   0  0  0  0  0  0  0  0  0  0  0  0
   15.8562   -0.3763   -6.6408 C   0  0  2  0  0  0  0  0  0  0  0  0
   16.1963    1.0782   -6.3051 C   0  0  0  0  0  0  0  0  0  0  0  0
   15.5273    1.7573   -5.5378 O   0  0  0  0  0  0  0  0  0  0  0  0
   17.3148    1.5499   -6.9649 N   0  0  0  0  0  0  0  0  0  0  0  0
   17.7975    2.9048   -6.7546 C   0  0  0  0  0  0  0  0  0  0  0  0
   19.2331    3.1256   -7.1692 C   0  0  0  0  0  0  0  0  0  0  0  0
   19.6775    4.4021   -7.5077 C   0  0  0  0  0  0  0  0  0  0  0  0
   21.0038    4.6368   -7.8412 C   0  0  0  0  0  0  0  0  0  0  0  0
   21.9242    3.5967   -7.8428 C   0  0  0  0  0  0  0  0  0  0  0  0
   23.3229    3.8158   -8.1744 C   0  0  0  0  0  0  0  0  0  0  0  0
   24.3873    4.2037   -7.3735 C   0  0  0  0  0  0  0  0  0  0  0  0
   24.3375    4.5420   -5.9332 C   0  0  0  0  0  0  0  0  0  0  0  0
   25.6105    4.2530   -8.0116 N   0  0  0  0  0  0  0  0  0  0  0  0
   25.4625    3.9297   -9.2767 C   0  0  0  0  0  0  0  0  0  0  0  0
   23.8748    3.5592   -9.7813 S   0  0  0  0  0  0  0  0  0  0  0  0
   21.4842    2.3276   -7.5001 C   0  0  0  0  0  0  0  0  0  0  0  0
   20.1664    2.0953   -7.1609 C   0  0  0  0  0  0  0  0  0  0  0  0
   14.5488   -0.4685   -7.4083 C   0  0  0  0  0  0  0  0  0  0  0  0
   13.4862   -0.5954   -6.3270 C   0  0  1  0  0  0  0  0  0  0  0  0
   12.3515   -1.3192   -6.8023 O   0  0  0  0  0  0  0  0  0  0  0  0
   14.1903   -1.3815   -5.2331 C   0  0  0  0  0  0  0  0  0  0  0  0
   18.2619   -5.8850   -4.7062 H   0  0  0  0  0  0  0  0  0  0  0  0
   16.7560   -6.6650   -5.2327 H   0  0  0  0  0  0  0  0  0  0  0  0
   17.4376   -7.0242   -3.6233 H   0  0  0  0  0  0  0  0  0  0  0  0
   17.9826   -3.8119   -4.2293 H   0  0  0  0  0  0  0  0  0  0  0  0
   15.2379   -2.9224   -3.6181 H   0  0  0  0  0  0  0  0  0  0  0  0
   15.7220   -0.1221   -2.5642 H   0  0  0  0  0  0  0  0  0  0  0  0
   15.7596   -0.5164   -0.8474 H   0  0  0  0  0  0  0  0  0  0  0  0
   14.5514   -1.2593   -1.9015 H   0  0  0  0  0  0  0  0  0  0  0  0
   16.4238   -2.7701   -0.0532 H   0  0  0  0  0  0  0  0  0  0  0  0
   17.0386   -3.9997   -1.1469 H   0  0  0  0  0  0  0  0  0  0  0  0
   15.3153   -3.5963   -1.1428 H   0  0  0  0  0  0  0  0  0  0  0  0
   18.2139   -1.3029   -0.9261 H   0  0  0  0  0  0  0  0  0  0  0  0
   18.1819   -0.6709   -2.5626 H   0  0  0  0  0  0  0  0  0  0  0  0
   18.7370   -2.3188   -2.2643 H   0  0  0  0  0  0  0  0  0  0  0  0
   16.6777   -0.8275   -7.2095 H   0  0  0  0  0  0  0  0  0  0  0  0
   17.8198    0.9327   -7.5953 H   0  0  0  0  0  0  0  0  0  0  0  0
   17.1358    3.5612   -7.3306 H   0  0  0  0  0  0  0  0  0  0  0  0
   17.6832    3.1607   -5.6957 H   0  0  0  0  0  0  0  0  0  0  0  0
   18.9824    5.2368   -7.5108 H   0  0  0  0  0  0  0  0  0  0  0  0
   21.3156    5.6438   -8.1022 H   0  0  0  0  0  0  0  0  0  0  0  0
   25.3140    4.8836   -5.5780 H   0  0  0  0  0  0  0  0  0  0  0  0
   24.0473    3.6739   -5.3344 H   0  0  0  0  0  0  0  0  0  0  0  0
   23.6068    5.3323   -5.7478 H   0  0  0  0  0  0  0  0  0  0  0  0
   26.2930    3.9017   -9.9674 H   0  0  0  0  0  0  0  0  0  0  0  0
   22.1726    1.4915   -7.5041 H   0  0  0  0  0  0  0  0  0  0  0  0
   19.8763    1.0860   -6.8911 H   0  0  0  0  0  0  0  0  0  0  0  0
   14.3652    0.3853   -8.0692 H   0  0  0  0  0  0  0  0  0  0  0  0
   14.5568   -1.3699   -8.0300 H   0  0  0  0  0  0  0  0  0  0  0  0
   13.1608    0.3846   -5.9605 H   0  0  0  0  0  0  0  0  0  0  0  0
   11.9096   -0.7815   -7.4851 H   0  0  0  0  0  0  0  0  0  0  0  0
   13.9816   -2.4536   -5.3016 H   0  0  0  0  0  0  0  0  0  0  0  0
   13.8923   -1.0434   -4.2368 H   0  0  0  0  0  0  0  0  0  0  0  0
  1 34  1  0  0  0  0
  1 35  1  0  0  0  0
  1 36  1  0  0  0  0
  1  2  1  0  0  0  0
  2  3  2  0  0  0  0
  2  4  1  0  0  0  0
  4 37  1  0  0  0  0
  5  4  1  0  0  0  0
  5 38  1  0  0  0  0
  5  6  1  0  0  0  0
  5 10  1  0  0  0  0
  6  7  1  0  0  0  0
  6  8  1  0  0  0  0
  6  9  1  0  0  0  0
  7 39  1  0  0  0  0
  7 40  1  0  0  0  0
  7 41  1  0  0  0  0
  8 42  1  0  0  0  0
  8 43  1  0  0  0  0
  8 44  1  0  0  0  0
  9 45  1  0  0  0  0
  9 46  1  0  0  0  0
  9 47  1  0  0  0  0
 10 11  2  0  0  0  0
 10 12  1  0  0  0  0
 12 33  1  0  0  0  0
 13 12  1  0  0  0  0
 13 30  1  0  0  0  0
 13 48  1  0  0  0  0
 13 14  1  0  0  0  0
 14 15  2  0  0  0  0
 14 16  1  0  0  0  0
 16 49  1  0  0  0  0
 16 17  1  0  0  0  0
 17 50  1  0  0  0  0
 17 51  1  0  0  0  0
 17 18  1  0  0  0  0
 18 19  1  0  0  0  0
 18 29  2  0  0  0  0
 19 52  1  0  0  0  0
 19 20  2  0  0  0  0
 20 53  1  0  0  0  0
 20 21  1  0  0  0  0
 21 28  2  0  0  0  0
 21 22  1  0  0  0  0
 22 23  2  0  0  0  0
 22 27  1  0  0  0  0
 23 24  1  0  0  0  0
 23 25  1  0  0  0  0
 24 54  1  0  0  0  0
 24 55  1  0  0  0  0
 24 56  1  0  0  0  0
 25 26  2  0  0  0  0
 26 57  1  0  0  0  0
 26 27  1  0  0  0  0
 28 58  1  0  0  0  0
 28 29  1  0  0  0  0
 29 59  1  0  0  0  0
 31 30  1  0  0  0  0
 30 60  1  0  0  0  0
 30 61  1  0  0  0  0
 31 33  1  0  0  0  0
 31 62  1  0  0  0  0
 31 32  1  0  0  0  0
 32 63  1  0  0  0  0
 33 64  1  0  0  0  0
 33 65  1  0  0  0  0
M  ZZC   1 c1
M  ZZC   2 c2
M  ZZC   3 o1
M  ZZC   4 n1
M  ZZC   5 c3
M  ZZC   6 c4
M  ZZC   7 c5
M  ZZC   8 c6
M  ZZC   9 c7
M  ZZC  10 c8
M  ZZC  11 o2
M  ZZC  12 n2
M  ZZC  13 c9
M  ZZC  14 c10
M  ZZC  15 o3
M  ZZC  16 n3
M  ZZC  17 c11
M  ZZC  18 c12
M  ZZC  19 c13
M  ZZC  20 c14
M  ZZC  21 c15
M  ZZC  22 c16
M  ZZC  23 c17
M  ZZC  24 c18
M  ZZC  25 n4
M  ZZC  26 c19
M  ZZC  27 s1
M  ZZC  28 c20
M  ZZC  29 c21
M  ZZC  30 c22
M  ZZC  31 c23
M  ZZC  32 o4
M  ZZC  33 c24
M  ZZC  34 h11
M  ZZC  35 h12
M  ZZC  36 h13
M  ZZC  37 h01
M  ZZC  38 h31
M  ZZC  39 h51
M  ZZC  40 h52
M  ZZC  41 h53
M  ZZC  42 h61
M  ZZC  43 h62
M  ZZC  44 h63
M  ZZC  45 h71
M  ZZC  46 h72
M  ZZC  47 h73
M  ZZC  48 h91
M  ZZC  49 h02
M  ZZC  50 h111
M  ZZC  51 h112
M  ZZC  52 h131
M  ZZC  53 h141
M  ZZC  54 h181
M  ZZC  55 h182
M  ZZC  56 h183
M  ZZC  57 h191
M  ZZC  58 h201
M  ZZC  59 h211
M  ZZC  60 h221
M  ZZC  61 h222
M  ZZC  62 h231
M  ZZC  63 h41
M  ZZC  64 h241
M  ZZC  65 h242
M  ZZM   1 1
M  ZZI   1 111
M  ZZM   2 3
M  ZZI   2 121
M  ZZM   3 7
M  ZZI   3 81
M  ZZM   4 10
M  ZZI   4 211
M  ZZM   5 1
M  ZZI   5 113
M  ZZM   6 1
M  ZZI   6 110
M  ZZM   7 1
M  ZZI   7 111
M  ZZM   8 1
M  ZZI   8 111
M  ZZM   9 1
M  ZZI   9 111
M  ZZM  10 3
M  ZZI  10 121
M  ZZM  11 7
M  ZZI  11 81
M  ZZM  12 10
M  ZZI  12 192
M  ZZM  13 1
M  ZZI  13 113
M  ZZM  14 3
M  ZZI  14 121
M  ZZM  15 7
M  ZZI  15 81
M  ZZM  16 10
M  ZZI  16 211
M  ZZM  17 1
M  ZZI  17 112
M  ZZM  18 37
M  ZZI  18 124
M  ZZM  19 37
M  ZZI  19 125
M  ZZM  20 37
M  ZZI  20 125
M  ZZM  21 37
M  ZZI  21 124
M  ZZM  22 63
M  ZZI  22 104
M  ZZM  23 64
M  ZZI  23 105
M  ZZM  24 1
M  ZZI  24 111
M  ZZM  25 66
M  ZZI  25 222
M  ZZM  26 63
M  ZZI  26 104
M  ZZM  27 44
M  ZZI  27 248
M  ZZM  28 37
M  ZZI  28 125
M  ZZM  29 37
M  ZZI  29 125
M  ZZM  30 1
M  ZZI  30 112
M  ZZM  31 1
M  ZZI  31 113
M  ZZM  32 6
M  ZZI  32 60
M  ZZM  33 1
M  ZZI  33 112
M  ZZM  34 5
M  ZZI  34 1
M  ZZM  35 5
M  ZZI  35 1
M  ZZM  36 5
M  ZZI  36 1
M  ZZM  37 28
M  ZZI  37 11
M  ZZM  38 5
M  ZZI  38 1
M  ZZM  39 5
M  ZZI  39 1
M  ZZM  40 5
M  ZZI  40 1
M  ZZM  41 5
M  ZZI  41 1
M  ZZM  42 5
M  ZZI  42 1
M  ZZM  43 5
M  ZZI  43 1
M  ZZM  44 5
M  ZZI  44 1
M  ZZM  45 5
M  ZZI  45 1
M  ZZM  46 5
M  ZZI  46 1
M  ZZM  47 5
M  ZZI  47 1
M  ZZM  48 5
M  ZZI  48 1
M  ZZM  49 28
M  ZZI  49 11
M  ZZM  50 5
M  ZZI  50 1
M  ZZM  51 5
M  ZZI  51 1
M  ZZM  52 5
M  ZZI  52 1
M  ZZM  53 5
M  ZZI  53 1
M  ZZM  54 5
M  ZZI  54 1
M  ZZM  55 5
M  ZZI  55 1
M  ZZM  56 5
M  ZZI  56 1
M  ZZM  57 5
M  ZZI  57 1
M  ZZM  58 5
M  ZZI  58 1
M  ZZM  59 5
M  ZZI  59 1
M  ZZM  60 5
M  ZZI  60 1
M  ZZM  61 5
M  ZZI  61 1
M  ZZM  62 5
M  ZZI  62 1
M  ZZM  63 21
M  ZZI  63 20
M  ZZM  64 5
M  ZZI  64 1
M  ZZM  65 5
M  ZZI  65 1
M  END
> <IX>
1

> <NAME>
VHL_5GMP_12.pdb

> <Score>
-16.013579

> <Natom>
65

> <Nflex>
8

> <Hbond>
-4.869688

> <Hphob>
-6.278802

> <VwInt>
-32.204021

> <Dsolv>
17.30391

> <SolEl>
18.423351

> <Eintl>
4.633678

> <RecConf>
ND

> <projPath>
VHL_maps/

> <NAME_>
VHL_5GMP_12.pdb

$$$$
