VHL_4CI3_14.pdb
  MOLSOFT 04032206393D

 65 67  0  0  1  0  0  0  0  0999 V2000
    1.2730   -0.2859  -17.7602 O   0  0  0  0  0  0  0  0  0  0  0  0
    1.5995    0.8698  -17.9864 C   0  0  0  0  0  0  0  0  0  0  0  0
    2.8952    1.2983  -18.1860 N   0  0  0  0  0  0  0  0  0  0  0  0
    4.0408    0.3840  -18.1800 C   0  0  1  0  0  0  0  0  0  0  0  0
    4.4363   -0.0794  -19.6217 C   0  0  0  0  0  0  0  0  0  0  0  0
    4.6914    1.1032  -20.5629 C   0  0  0  0  0  0  0  0  0  0  0  0
    3.3057   -0.9218  -20.2359 C   0  0  0  0  0  0  0  0  0  0  0  0
    5.7035   -0.9478  -19.6139 C   0  0  0  0  0  0  0  0  0  0  0  0
    5.1565    1.1257  -17.4154 C   0  0  0  0  0  0  0  0  0  0  0  0
    5.3682    2.3148  -17.6196 O   0  0  0  0  0  0  0  0  0  0  0  0
    5.9116    0.3999  -16.4882 N   0  0  0  0  0  0  0  0  0  0  0  0
    5.7588   -0.9947  -16.0736 C   0  0  2  0  0  0  0  0  0  0  0  0
    4.5455   -1.2148  -15.1673 C   0  0  0  0  0  0  0  0  0  0  0  0
    4.2169   -0.4132  -14.3049 O   0  0  0  0  0  0  0  0  0  0  0  0
    3.8896   -2.4133  -15.4026 N   0  0  0  0  0  0  0  0  0  0  0  0
    2.6227   -2.7405  -14.7748 C   0  0  0  0  0  0  0  0  0  0  0  0
    2.6943   -3.9175  -13.8344 C   0  0  0  0  0  0  0  0  0  0  0  0
    2.7617   -5.2211  -14.3136 C   0  0  0  0  0  0  0  0  0  0  0  0
    2.7473   -6.3016  -13.4441 C   0  0  0  0  0  0  0  0  0  0  0  0
    2.6776   -6.1210  -12.0638 C   0  0  0  0  0  0  0  0  0  0  0  0
    2.6158   -7.2659  -11.1500 C   0  0  0  0  0  0  0  0  0  0  0  0
    3.2941   -8.4820  -11.1456 C   0  0  0  0  0  0  0  0  0  0  0  0
    4.3218   -8.9380  -12.1023 C   0  0  0  0  0  0  0  0  0  0  0  0
    2.9663   -9.3450  -10.1191 N   0  0  0  0  0  0  0  0  0  0  0  0
    2.0147   -8.8141   -9.3865 C   0  0  0  0  0  0  0  0  0  0  0  0
    1.5151   -7.2432   -9.8232 S   0  0  0  0  0  0  0  0  0  0  0  0
    2.6509   -4.8107  -11.5882 C   0  0  0  0  0  0  0  0  0  0  0  0
    2.6535   -3.7305  -12.4569 C   0  0  0  0  0  0  0  0  0  0  0  0
    7.0310   -1.2968  -15.2987 C   0  0  0  0  0  0  0  0  0  0  0  0
    7.4741    0.0439  -14.7518 C   0  0  1  0  0  0  0  0  0  0  0  0
    8.8804    0.0541  -14.4999 O   0  0  0  0  0  0  0  0  0  0  0  0
    7.0838    0.9903  -15.8719 C   0  0  0  0  0  0  0  0  0  0  0  0
    0.5936    1.9780  -18.1078 C   0  0  0  0  0  0  0  0  0  0  0  0
    3.0753    2.2965  -18.2850 H   0  0  0  0  0  0  0  0  0  0  0  0
    3.7395   -0.4924  -17.6030 H   0  0  0  0  0  0  0  0  0  0  0  0
    3.8082    1.7422  -20.6600 H   0  0  0  0  0  0  0  0  0  0  0  0
    4.9466    0.7633  -21.5721 H   0  0  0  0  0  0  0  0  0  0  0  0
    5.5293    1.7094  -20.2122 H   0  0  0  0  0  0  0  0  0  0  0  0
    3.0396   -1.7657  -19.5911 H   0  0  0  0  0  0  0  0  0  0  0  0
    3.5973   -1.3362  -21.2066 H   0  0  0  0  0  0  0  0  0  0  0  0
    2.3997   -0.3322  -20.4067 H   0  0  0  0  0  0  0  0  0  0  0  0
    5.5481   -1.8790  -19.0626 H   0  0  0  0  0  0  0  0  0  0  0  0
    6.5596   -0.4257  -19.1762 H   0  0  0  0  0  0  0  0  0  0  0  0
    5.9958   -1.2335  -20.6297 H   0  0  0  0  0  0  0  0  0  0  0  0
    5.6757   -1.6432  -16.9468 H   0  0  0  0  0  0  0  0  0  0  0  0
    4.2589   -3.0720  -16.0794 H   0  0  0  0  0  0  0  0  0  0  0  0
    2.2351   -1.8628  -14.2539 H   0  0  0  0  0  0  0  0  0  0  0  0
    1.9125   -2.9591  -15.5789 H   0  0  0  0  0  0  0  0  0  0  0  0
    2.7956   -5.4068  -15.3830 H   0  0  0  0  0  0  0  0  0  0  0  0
    2.7614   -7.3011  -13.8666 H   0  0  0  0  0  0  0  0  0  0  0  0
    3.8614   -9.4606  -12.9455 H   0  0  0  0  0  0  0  0  0  0  0  0
    5.0259   -9.6215  -11.6216 H   0  0  0  0  0  0  0  0  0  0  0  0
    4.8922   -8.0940  -12.4869 H   0  0  0  0  0  0  0  0  0  0  0  0
    1.5729   -9.3315   -8.5469 H   0  0  0  0  0  0  0  0  0  0  0  0
    2.6256   -4.6106  -10.5212 H   0  0  0  0  0  0  0  0  0  0  0  0
    2.6133   -2.7273  -12.0426 H   0  0  0  0  0  0  0  0  0  0  0  0
    6.8709   -2.0026  -14.4869 H   0  0  0  0  0  0  0  0  0  0  0  0
    7.8013   -1.7135  -15.9590 H   0  0  0  0  0  0  0  0  0  0  0  0
    6.9418    0.2883  -13.8255 H   0  0  0  0  0  0  0  0  0  0  0  0
    9.0972   -0.7185  -13.9444 H   0  0  0  0  0  0  0  0  0  0  0  0
    7.8664    1.0476  -16.6338 H   0  0  0  0  0  0  0  0  0  0  0  0
    6.8840    2.0082  -15.5308 H   0  0  0  0  0  0  0  0  0  0  0  0
   -0.3843    1.6338  -17.7601 H   0  0  0  0  0  0  0  0  0  0  0  0
    0.5160    2.2936  -19.1525 H   0  0  0  0  0  0  0  0  0  0  0  0
    0.9053    2.8247  -17.4949 H   0  0  0  0  0  0  0  0  0  0  0  0
  1  2  2  0  0  0  0
  2  3  1  0  0  0  0
  2 33  1  0  0  0  0
  4  3  1  0  0  0  0
  3 34  1  0  0  0  0
  4  5  1  0  0  0  0
  4 35  1  0  0  0  0
  4  9  1  0  0  0  0
  5  6  1  0  0  0  0
  5  7  1  0  0  0  0
  5  8  1  0  0  0  0
  6 36  1  0  0  0  0
  6 37  1  0  0  0  0
  6 38  1  0  0  0  0
  7 39  1  0  0  0  0
  7 40  1  0  0  0  0
  7 41  1  0  0  0  0
  8 42  1  0  0  0  0
  8 43  1  0  0  0  0
  8 44  1  0  0  0  0
  9 10  2  0  0  0  0
  9 11  1  0  0  0  0
 11 32  1  0  0  0  0
 12 11  1  0  0  0  0
 12 29  1  0  0  0  0
 12 45  1  0  0  0  0
 12 13  1  0  0  0  0
 13 14  2  0  0  0  0
 13 15  1  0  0  0  0
 15 46  1  0  0  0  0
 15 16  1  0  0  0  0
 16 47  1  0  0  0  0
 16 48  1  0  0  0  0
 16 17  1  0  0  0  0
 17 18  1  0  0  0  0
 17 28  2  0  0  0  0
 18 49  1  0  0  0  0
 18 19  2  0  0  0  0
 19 50  1  0  0  0  0
 19 20  1  0  0  0  0
 20 27  2  0  0  0  0
 20 21  1  0  0  0  0
 21 22  2  0  0  0  0
 21 26  1  0  0  0  0
 22 23  1  0  0  0  0
 22 24  1  0  0  0  0
 23 51  1  0  0  0  0
 23 52  1  0  0  0  0
 23 53  1  0  0  0  0
 24 25  2  0  0  0  0
 25 54  1  0  0  0  0
 25 26  1  0  0  0  0
 27 55  1  0  0  0  0
 27 28  1  0  0  0  0
 28 56  1  0  0  0  0
 30 29  1  0  0  0  0
 29 57  1  0  0  0  0
 29 58  1  0  0  0  0
 30 32  1  0  0  0  0
 30 59  1  0  0  0  0
 30 31  1  0  0  0  0
 31 60  1  0  0  0  0
 32 61  1  0  0  0  0
 32 62  1  0  0  0  0
 33 63  1  0  0  0  0
 33 64  1  0  0  0  0
 33 65  1  0  0  0  0
M  ZZC   1 o1
M  ZZC   2 c1
M  ZZC   3 n1
M  ZZC   4 c2
M  ZZC   5 c3
M  ZZC   6 c4
M  ZZC   7 c5
M  ZZC   8 c6
M  ZZC   9 c7
M  ZZC  10 o2
M  ZZC  11 n2
M  ZZC  12 c8
M  ZZC  13 c9
M  ZZC  14 o3
M  ZZC  15 n3
M  ZZC  16 c10
M  ZZC  17 c11
M  ZZC  18 c12
M  ZZC  19 c13
M  ZZC  20 c14
M  ZZC  21 c15
M  ZZC  22 c16
M  ZZC  23 c17
M  ZZC  24 n4
M  ZZC  25 c18
M  ZZC  26 s1
M  ZZC  27 c19
M  ZZC  28 c20
M  ZZC  29 c21
M  ZZC  30 c22
M  ZZC  31 o4
M  ZZC  32 c23
M  ZZC  33 c24
M  ZZC  34 h11
M  ZZC  35 h21
M  ZZC  36 h41
M  ZZC  37 h42
M  ZZC  38 h43
M  ZZC  39 h51
M  ZZC  40 h52
M  ZZC  41 h53
M  ZZC  42 h61
M  ZZC  43 h62
M  ZZC  44 h63
M  ZZC  45 h81
M  ZZC  46 h31
M  ZZC  47 h101
M  ZZC  48 h102
M  ZZC  49 h121
M  ZZC  50 h131
M  ZZC  51 h171
M  ZZC  52 h172
M  ZZC  53 h173
M  ZZC  54 h181
M  ZZC  55 h191
M  ZZC  56 h201
M  ZZC  57 h211
M  ZZC  58 h212
M  ZZC  59 h221
M  ZZC  60 h01
M  ZZC  61 h231
M  ZZC  62 h232
M  ZZC  63 h241
M  ZZC  64 h242
M  ZZC  65 h243
M  ZZM   1 7
M  ZZI   1 81
M  ZZM   2 3
M  ZZI   2 121
M  ZZM   3 10
M  ZZI   3 211
M  ZZM   4 1
M  ZZI   4 113
M  ZZM   5 1
M  ZZI   5 110
M  ZZM   6 1
M  ZZI   6 111
M  ZZM   7 1
M  ZZI   7 111
M  ZZM   8 1
M  ZZI   8 111
M  ZZM   9 3
M  ZZI   9 121
M  ZZM  10 7
M  ZZI  10 81
M  ZZM  11 10
M  ZZI  11 192
M  ZZM  12 1
M  ZZI  12 113
M  ZZM  13 3
M  ZZI  13 121
M  ZZM  14 7
M  ZZI  14 81
M  ZZM  15 10
M  ZZI  15 211
M  ZZM  16 1
M  ZZI  16 112
M  ZZM  17 37
M  ZZI  17 124
M  ZZM  18 37
M  ZZI  18 125
M  ZZM  19 37
M  ZZI  19 125
M  ZZM  20 37
M  ZZI  20 124
M  ZZM  21 63
M  ZZI  21 104
M  ZZM  22 64
M  ZZI  22 105
M  ZZM  23 1
M  ZZI  23 111
M  ZZM  24 66
M  ZZI  24 222
M  ZZM  25 63
M  ZZI  25 104
M  ZZM  26 44
M  ZZI  26 248
M  ZZM  27 37
M  ZZI  27 125
M  ZZM  28 37
M  ZZI  28 125
M  ZZM  29 1
M  ZZI  29 112
M  ZZM  30 1
M  ZZI  30 113
M  ZZM  31 6
M  ZZI  31 60
M  ZZM  32 1
M  ZZI  32 112
M  ZZM  33 1
M  ZZI  33 111
M  ZZM  34 28
M  ZZI  34 11
M  ZZM  35 5
M  ZZI  35 1
M  ZZM  36 5
M  ZZI  36 1
M  ZZM  37 5
M  ZZI  37 1
M  ZZM  38 5
M  ZZI  38 1
M  ZZM  39 5
M  ZZI  39 1
M  ZZM  40 5
M  ZZI  40 1
M  ZZM  41 5
M  ZZI  41 1
M  ZZM  42 5
M  ZZI  42 1
M  ZZM  43 5
M  ZZI  43 1
M  ZZM  44 5
M  ZZI  44 1
M  ZZM  45 5
M  ZZI  45 1
M  ZZM  46 28
M  ZZI  46 11
M  ZZM  47 5
M  ZZI  47 1
M  ZZM  48 5
M  ZZI  48 1
M  ZZM  49 5
M  ZZI  49 1
M  ZZM  50 5
M  ZZI  50 1
M  ZZM  51 5
M  ZZI  51 1
M  ZZM  52 5
M  ZZI  52 1
M  ZZM  53 5
M  ZZI  53 1
M  ZZM  54 5
M  ZZI  54 1
M  ZZM  55 5
M  ZZI  55 1
M  ZZM  56 5
M  ZZI  56 1
M  ZZM  57 5
M  ZZI  57 1
M  ZZM  58 5
M  ZZI  58 1
M  ZZM  59 5
M  ZZI  59 1
M  ZZM  60 21
M  ZZI  60 20
M  ZZM  61 5
M  ZZI  61 1
M  ZZM  62 5
M  ZZI  62 1
M  ZZM  63 5
M  ZZI  63 1
M  ZZM  64 5
M  ZZI  64 1
M  ZZM  65 5
M  ZZI  65 1
M  END
> <IX>
1

> <NAME>
VHL_4CI3_14.pdb

> <Score>
-19.847907

> <Natom>
65

> <Nflex>
8

> <Hbond>
-7.514682

> <Hphob>
-6.323078

> <VwInt>
-22.687448

> <Dsolv>
15.280883

> <SolEl>
10.90258

> <Eintl>
4.386307

> <RecConf>
ND

> <projPath>
VHL_maps/

> <NAME_>
VHL_4CI3_14.pdb

$$$$
