VHL_1XKK_1.pdb
  MOLSOFT 04032206363D

 65 67  0  0  1  0  0  0  0  0999 V2000
   18.4179   -7.0475   -5.3777 C   0  0  0  0  0  0  0  0  0  0  0  0
   17.2383   -6.1158   -5.3424 C   0  0  0  0  0  0  0  0  0  0  0  0
   16.1433   -6.4765   -5.7439 O   0  0  0  0  0  0  0  0  0  0  0  0
   17.5248   -4.8761   -4.8031 N   0  0  0  0  0  0  0  0  0  0  0  0
   16.5477   -3.7887   -4.6996 C   0  0  1  0  0  0  0  0  0  0  0  0
   15.8952   -3.6737   -3.2817 C   0  0  0  0  0  0  0  0  0  0  0  0
   15.4519   -5.0499   -2.7641 C   0  0  0  0  0  0  0  0  0  0  0  0
   16.8588   -3.0744   -2.2449 C   0  0  0  0  0  0  0  0  0  0  0  0
   14.6395   -2.7895   -3.3388 C   0  0  0  0  0  0  0  0  0  0  0  0
   17.2488   -2.4905   -5.1397 C   0  0  0  0  0  0  0  0  0  0  0  0
   18.3951   -2.2419   -4.7952 O   0  0  0  0  0  0  0  0  0  0  0  0
   16.5127   -1.5563   -5.8688 N   0  0  0  0  0  0  0  0  0  0  0  0
   17.0469   -0.2237   -6.1171 C   0  0  2  0  0  0  0  0  0  0  0  0
   17.1034    0.6399   -4.8606 C   0  0  0  0  0  0  0  0  0  0  0  0
   16.3386    0.5043   -3.9151 O   0  0  0  0  0  0  0  0  0  0  0  0
   18.0287    1.6607   -4.9649 N   0  0  0  0  0  0  0  0  0  0  0  0
   18.0003    2.8036   -4.0792 C   0  0  0  0  0  0  0  0  0  0  0  0
   17.0822    3.8462   -4.6602 C   0  0  0  0  0  0  0  0  0  0  0  0
   15.7325    3.8758   -4.3220 C   0  0  0  0  0  0  0  0  0  0  0  0
   14.8589    4.7312   -4.9700 C   0  0  0  0  0  0  0  0  0  0  0  0
   15.3109    5.5780   -5.9765 C   0  0  0  0  0  0  0  0  0  0  0  0
   14.3785    6.4192   -6.7154 C   0  0  0  0  0  0  0  0  0  0  0  0
   13.3832    7.2897   -6.2843 C   0  0  0  0  0  0  0  0  0  0  0  0
   13.0030    7.6079   -4.8879 C   0  0  0  0  0  0  0  0  0  0  0  0
   12.6824    7.9165   -7.2945 N   0  0  0  0  0  0  0  0  0  0  0  0
   13.1195    7.4949   -8.4586 C   0  0  0  0  0  0  0  0  0  0  0  0
   14.3957    6.3724   -8.4354 S   0  0  0  0  0  0  0  0  0  0  0  0
   16.6685    5.5744   -6.2868 C   0  0  0  0  0  0  0  0  0  0  0  0
   17.5415    4.7190   -5.6398 C   0  0  0  0  0  0  0  0  0  0  0  0
   16.0832    0.4241   -7.1078 C   0  0  0  0  0  0  0  0  0  0  0  0
   15.4250   -0.7519   -7.7984 C   0  0  1  0  0  0  0  0  0  0  0  0
   16.2179   -1.1765   -8.9161 O   0  0  0  0  0  0  0  0  0  0  0  0
   15.3745   -1.8288   -6.7225 C   0  0  0  0  0  0  0  0  0  0  0  0
   19.3614   -6.5102   -5.2450 H   0  0  0  0  0  0  0  0  0  0  0  0
   18.4454   -7.5525   -6.3467 H   0  0  0  0  0  0  0  0  0  0  0  0
   18.3061   -7.7902   -4.5847 H   0  0  0  0  0  0  0  0  0  0  0  0
   18.4681   -4.6961   -4.4803 H   0  0  0  0  0  0  0  0  0  0  0  0
   15.7806   -4.0218   -5.4253 H   0  0  0  0  0  0  0  0  0  0  0  0
   14.9511   -4.9733   -1.7940 H   0  0  0  0  0  0  0  0  0  0  0  0
   16.2953   -5.7325   -2.6308 H   0  0  0  0  0  0  0  0  0  0  0  0
   14.7459   -5.5183   -3.4507 H   0  0  0  0  0  0  0  0  0  0  0  0
   16.4245   -3.0919   -1.2400 H   0  0  0  0  0  0  0  0  0  0  0  0
   17.1034   -2.0309   -2.4638 H   0  0  0  0  0  0  0  0  0  0  0  0
   17.7971   -3.6302   -2.2005 H   0  0  0  0  0  0  0  0  0  0  0  0
   14.8730   -1.7590   -3.6150 H   0  0  0  0  0  0  0  0  0  0  0  0
   14.1343   -2.7480   -2.3684 H   0  0  0  0  0  0  0  0  0  0  0  0
   13.9141   -3.1717   -4.0635 H   0  0  0  0  0  0  0  0  0  0  0  0
   18.0504   -0.3235   -6.5352 H   0  0  0  0  0  0  0  0  0  0  0  0
   18.6583    1.6932   -5.7593 H   0  0  0  0  0  0  0  0  0  0  0  0
   17.6674    2.4993   -3.0808 H   0  0  0  0  0  0  0  0  0  0  0  0
   19.0219    3.1875   -3.9881 H   0  0  0  0  0  0  0  0  0  0  0  0
   15.3406    3.1932   -3.5729 H   0  0  0  0  0  0  0  0  0  0  0  0
   13.8049    4.6982   -4.7089 H   0  0  0  0  0  0  0  0  0  0  0  0
   12.2619    6.8928   -4.5188 H   0  0  0  0  0  0  0  0  0  0  0  0
   12.5630    8.6061   -4.8249 H   0  0  0  0  0  0  0  0  0  0  0  0
   13.8682    7.5903   -4.2193 H   0  0  0  0  0  0  0  0  0  0  0  0
   12.7011    7.8295   -9.3919 H   0  0  0  0  0  0  0  0  0  0  0  0
   17.0628    6.2319   -7.0565 H   0  0  0  0  0  0  0  0  0  0  0  0
   18.5877    4.7147   -5.9317 H   0  0  0  0  0  0  0  0  0  0  0  0
   15.3237    1.0170   -6.5849 H   0  0  0  0  0  0  0  0  0  0  0  0
   16.6070    1.0886   -7.8031 H   0  0  0  0  0  0  0  0  0  0  0  0
   14.4296   -0.5019   -8.1679 H   0  0  0  0  0  0  0  0  0  0  0  0
   17.1546   -1.0958   -8.6576 H   0  0  0  0  0  0  0  0  0  0  0  0
   15.4436   -2.8338   -7.1453 H   0  0  0  0  0  0  0  0  0  0  0  0
   14.4718   -1.7363   -6.1110 H   0  0  0  0  0  0  0  0  0  0  0  0
  1 34  1  0  0  0  0
  1 35  1  0  0  0  0
  1 36  1  0  0  0  0
  1  2  1  0  0  0  0
  2  3  2  0  0  0  0
  2  4  1  0  0  0  0
  4 37  1  0  0  0  0
  5  4  1  0  0  0  0
  5 38  1  0  0  0  0
  5  6  1  0  0  0  0
  5 10  1  0  0  0  0
  6  7  1  0  0  0  0
  6  8  1  0  0  0  0
  6  9  1  0  0  0  0
  7 39  1  0  0  0  0
  7 40  1  0  0  0  0
  7 41  1  0  0  0  0
  8 42  1  0  0  0  0
  8 43  1  0  0  0  0
  8 44  1  0  0  0  0
  9 45  1  0  0  0  0
  9 46  1  0  0  0  0
  9 47  1  0  0  0  0
 10 11  2  0  0  0  0
 10 12  1  0  0  0  0
 12 33  1  0  0  0  0
 13 12  1  0  0  0  0
 13 30  1  0  0  0  0
 13 48  1  0  0  0  0
 13 14  1  0  0  0  0
 14 15  2  0  0  0  0
 14 16  1  0  0  0  0
 16 49  1  0  0  0  0
 16 17  1  0  0  0  0
 17 50  1  0  0  0  0
 17 51  1  0  0  0  0
 17 18  1  0  0  0  0
 18 19  1  0  0  0  0
 18 29  2  0  0  0  0
 19 52  1  0  0  0  0
 19 20  2  0  0  0  0
 20 53  1  0  0  0  0
 20 21  1  0  0  0  0
 21 28  2  0  0  0  0
 21 22  1  0  0  0  0
 22 23  2  0  0  0  0
 22 27  1  0  0  0  0
 23 24  1  0  0  0  0
 23 25  1  0  0  0  0
 24 54  1  0  0  0  0
 24 55  1  0  0  0  0
 24 56  1  0  0  0  0
 25 26  2  0  0  0  0
 26 57  1  0  0  0  0
 26 27  1  0  0  0  0
 28 58  1  0  0  0  0
 28 29  1  0  0  0  0
 29 59  1  0  0  0  0
 31 30  1  0  0  0  0
 30 60  1  0  0  0  0
 30 61  1  0  0  0  0
 31 33  1  0  0  0  0
 31 62  1  0  0  0  0
 31 32  1  0  0  0  0
 32 63  1  0  0  0  0
 33 64  1  0  0  0  0
 33 65  1  0  0  0  0
M  ZZC   1 c1
M  ZZC   2 c2
M  ZZC   3 o1
M  ZZC   4 n1
M  ZZC   5 c3
M  ZZC   6 c4
M  ZZC   7 c5
M  ZZC   8 c6
M  ZZC   9 c7
M  ZZC  10 c8
M  ZZC  11 o2
M  ZZC  12 n2
M  ZZC  13 c9
M  ZZC  14 c10
M  ZZC  15 o3
M  ZZC  16 n3
M  ZZC  17 c11
M  ZZC  18 c12
M  ZZC  19 c13
M  ZZC  20 c14
M  ZZC  21 c15
M  ZZC  22 c16
M  ZZC  23 c17
M  ZZC  24 c18
M  ZZC  25 n4
M  ZZC  26 c19
M  ZZC  27 s1
M  ZZC  28 c20
M  ZZC  29 c21
M  ZZC  30 c22
M  ZZC  31 c23
M  ZZC  32 o4
M  ZZC  33 c24
M  ZZC  34 h11
M  ZZC  35 h12
M  ZZC  36 h13
M  ZZC  37 h01
M  ZZC  38 h31
M  ZZC  39 h51
M  ZZC  40 h52
M  ZZC  41 h53
M  ZZC  42 h61
M  ZZC  43 h62
M  ZZC  44 h63
M  ZZC  45 h71
M  ZZC  46 h72
M  ZZC  47 h73
M  ZZC  48 h91
M  ZZC  49 h02
M  ZZC  50 h111
M  ZZC  51 h112
M  ZZC  52 h131
M  ZZC  53 h141
M  ZZC  54 h181
M  ZZC  55 h182
M  ZZC  56 h183
M  ZZC  57 h191
M  ZZC  58 h201
M  ZZC  59 h211
M  ZZC  60 h221
M  ZZC  61 h222
M  ZZC  62 h231
M  ZZC  63 h41
M  ZZC  64 h241
M  ZZC  65 h242
M  ZZM   1 1
M  ZZI   1 111
M  ZZM   2 3
M  ZZI   2 121
M  ZZM   3 7
M  ZZI   3 81
M  ZZM   4 10
M  ZZI   4 211
M  ZZM   5 1
M  ZZI   5 113
M  ZZM   6 1
M  ZZI   6 110
M  ZZM   7 1
M  ZZI   7 111
M  ZZM   8 1
M  ZZI   8 111
M  ZZM   9 1
M  ZZI   9 111
M  ZZM  10 3
M  ZZI  10 121
M  ZZM  11 7
M  ZZI  11 81
M  ZZM  12 10
M  ZZI  12 192
M  ZZM  13 1
M  ZZI  13 113
M  ZZM  14 3
M  ZZI  14 121
M  ZZM  15 7
M  ZZI  15 81
M  ZZM  16 10
M  ZZI  16 211
M  ZZM  17 1
M  ZZI  17 112
M  ZZM  18 37
M  ZZI  18 124
M  ZZM  19 37
M  ZZI  19 125
M  ZZM  20 37
M  ZZI  20 125
M  ZZM  21 37
M  ZZI  21 124
M  ZZM  22 63
M  ZZI  22 104
M  ZZM  23 64
M  ZZI  23 105
M  ZZM  24 1
M  ZZI  24 111
M  ZZM  25 66
M  ZZI  25 222
M  ZZM  26 63
M  ZZI  26 104
M  ZZM  27 44
M  ZZI  27 248
M  ZZM  28 37
M  ZZI  28 125
M  ZZM  29 37
M  ZZI  29 125
M  ZZM  30 1
M  ZZI  30 112
M  ZZM  31 1
M  ZZI  31 113
M  ZZM  32 6
M  ZZI  32 60
M  ZZM  33 1
M  ZZI  33 112
M  ZZM  34 5
M  ZZI  34 1
M  ZZM  35 5
M  ZZI  35 1
M  ZZM  36 5
M  ZZI  36 1
M  ZZM  37 28
M  ZZI  37 11
M  ZZM  38 5
M  ZZI  38 1
M  ZZM  39 5
M  ZZI  39 1
M  ZZM  40 5
M  ZZI  40 1
M  ZZM  41 5
M  ZZI  41 1
M  ZZM  42 5
M  ZZI  42 1
M  ZZM  43 5
M  ZZI  43 1
M  ZZM  44 5
M  ZZI  44 1
M  ZZM  45 5
M  ZZI  45 1
M  ZZM  46 5
M  ZZI  46 1
M  ZZM  47 5
M  ZZI  47 1
M  ZZM  48 5
M  ZZI  48 1
M  ZZM  49 28
M  ZZI  49 11
M  ZZM  50 5
M  ZZI  50 1
M  ZZM  51 5
M  ZZI  51 1
M  ZZM  52 5
M  ZZI  52 1
M  ZZM  53 5
M  ZZI  53 1
M  ZZM  54 5
M  ZZI  54 1
M  ZZM  55 5
M  ZZI  55 1
M  ZZM  56 5
M  ZZI  56 1
M  ZZM  57 5
M  ZZI  57 1
M  ZZM  58 5
M  ZZI  58 1
M  ZZM  59 5
M  ZZI  59 1
M  ZZM  60 5
M  ZZI  60 1
M  ZZM  61 5
M  ZZI  61 1
M  ZZM  62 5
M  ZZI  62 1
M  ZZM  63 21
M  ZZI  63 20
M  ZZM  64 5
M  ZZI  64 1
M  ZZM  65 5
M  ZZI  65 1
M  END
> <IX>
1

> <NAME>
VHL_1XKK_1.pdb

> <Score>
-25.216052

> <Natom>
65

> <Nflex>
8

> <Hbond>
-8.022461

> <Hphob>
-6.447489

> <VwInt>
-29.547164

> <Dsolv>
20.305014

> <SolEl>
8.793092

> <Eintl>
5.192593

> <RecConf>
ND

> <projPath>
VHL_maps/

> <NAME_>
VHL_1XKK_1.pdb

$$$$
