VHL_4IM0_18.pdb
  MOLSOFT 04032206383D

 65 67  0  0  1  0  0  0  0  0999 V2000
   18.3685   -6.9359   -5.3292 C   0  0  0  0  0  0  0  0  0  0  0  0
   17.1911   -6.0010   -5.2888 C   0  0  0  0  0  0  0  0  0  0  0  0
   16.0900   -6.3659   -5.6681 O   0  0  0  0  0  0  0  0  0  0  0  0
   17.4849   -4.7571   -4.7633 N   0  0  0  0  0  0  0  0  0  0  0  0
   16.5101   -3.6672   -4.6473 C   0  0  1  0  0  0  0  0  0  0  0  0
   15.8900   -3.5410   -3.2182 C   0  0  0  0  0  0  0  0  0  0  0  0
   16.8941   -2.9849   -2.1963 C   0  0  0  0  0  0  0  0  0  0  0  0
   15.4088   -4.9085   -2.7081 C   0  0  0  0  0  0  0  0  0  0  0  0
   14.6667   -2.6111   -3.2480 C   0  0  0  0  0  0  0  0  0  0  0  0
   17.2052   -2.3756   -5.1219 C   0  0  0  0  0  0  0  0  0  0  0  0
   18.3565   -2.1214   -4.7993 O   0  0  0  0  0  0  0  0  0  0  0  0
   16.4655   -1.4620   -5.8746 N   0  0  0  0  0  0  0  0  0  0  0  0
   17.0283   -0.1648   -6.2309 C   0  0  2  0  0  0  0  0  0  0  0  0
   17.2116    0.8086   -5.0743 C   0  0  0  0  0  0  0  0  0  0  0  0
   16.5609    0.7639   -4.0390 O   0  0  0  0  0  0  0  0  0  0  0  0
   18.1145    1.8065   -5.3889 N   0  0  0  0  0  0  0  0  0  0  0  0
   18.2332    3.0137   -4.6059 C   0  0  0  0  0  0  0  0  0  0  0  0
   17.2919    4.0640   -5.1369 C   0  0  0  0  0  0  0  0  0  0  0  0
   17.5899    4.7602   -6.3051 C   0  0  0  0  0  0  0  0  0  0  0  0
   16.7118    5.7044   -6.8098 C   0  0  0  0  0  0  0  0  0  0  0  0
   15.5146    5.9792   -6.1573 C   0  0  0  0  0  0  0  0  0  0  0  0
   14.6274    7.0184   -6.6568 C   0  0  0  0  0  0  0  0  0  0  0  0
   13.9342    7.1316   -7.8553 C   0  0  0  0  0  0  0  0  0  0  0  0
   13.8875    6.1408   -8.9543 C   0  0  0  0  0  0  0  0  0  0  0  0
   13.2234    8.3056   -8.0075 N   0  0  0  0  0  0  0  0  0  0  0  0
   13.3783    9.0532   -6.9379 C   0  0  0  0  0  0  0  0  0  0  0  0
   14.3422    8.4102   -5.6898 S   0  0  0  0  0  0  0  0  0  0  0  0
   15.2032    5.2653   -5.0042 C   0  0  0  0  0  0  0  0  0  0  0  0
   16.0790    4.3172   -4.5033 C   0  0  0  0  0  0  0  0  0  0  0  0
   16.0379    0.4485   -7.2149 C   0  0  0  0  0  0  0  0  0  0  0  0
   15.3716   -0.7559   -7.8383 C   0  0  1  0  0  0  0  0  0  0  0  0
   16.1692   -1.2397   -8.9285 O   0  0  0  0  0  0  0  0  0  0  0  0
   15.3180   -1.7705   -6.7041 C   0  0  0  0  0  0  0  0  0  0  0  0
   19.3171   -6.3916   -5.3021 H   0  0  0  0  0  0  0  0  0  0  0  0
   18.3341   -7.5169   -6.2548 H   0  0  0  0  0  0  0  0  0  0  0  0
   18.3111   -7.6143   -4.4752 H   0  0  0  0  0  0  0  0  0  0  0  0
   18.4350   -4.5747   -4.4623 H   0  0  0  0  0  0  0  0  0  0  0  0
   15.7190   -3.9056   -5.3443 H   0  0  0  0  0  0  0  0  0  0  0  0
   16.4759   -2.9887   -1.1845 H   0  0  0  0  0  0  0  0  0  0  0  0
   17.1771   -1.9514   -2.4172 H   0  0  0  0  0  0  0  0  0  0  0  0
   17.8097   -3.5786   -2.1686 H   0  0  0  0  0  0  0  0  0  0  0  0
   14.9220   -4.8247   -1.7316 H   0  0  0  0  0  0  0  0  0  0  0  0
   16.2327   -5.6172   -2.5894 H   0  0  0  0  0  0  0  0  0  0  0  0
   14.6814   -5.3525   -3.3906 H   0  0  0  0  0  0  0  0  0  0  0  0
   14.9454   -1.5918   -3.5345 H   0  0  0  0  0  0  0  0  0  0  0  0
   14.1875   -2.5504   -2.2659 H   0  0  0  0  0  0  0  0  0  0  0  0
   13.9132   -2.9454   -3.9659 H   0  0  0  0  0  0  0  0  0  0  0  0
   17.9987   -0.3385   -6.6979 H   0  0  0  0  0  0  0  0  0  0  0  0
   18.6465    1.7495   -6.2509 H   0  0  0  0  0  0  0  0  0  0  0  0
   18.0266    2.7943   -3.5527 H   0  0  0  0  0  0  0  0  0  0  0  0
   19.2704    3.3587   -4.6736 H   0  0  0  0  0  0  0  0  0  0  0  0
   18.5206    4.5721   -6.8327 H   0  0  0  0  0  0  0  0  0  0  0  0
   16.9818    6.2453   -7.7127 H   0  0  0  0  0  0  0  0  0  0  0  0
   14.8773    5.9953   -9.3963 H   0  0  0  0  0  0  0  0  0  0  0  0
   13.2140    6.4739   -9.7494 H   0  0  0  0  0  0  0  0  0  0  0  0
   13.5377    5.1703   -8.5908 H   0  0  0  0  0  0  0  0  0  0  0  0
   12.9290   10.0281   -6.8373 H   0  0  0  0  0  0  0  0  0  0  0  0
   14.2674    5.4439   -4.4818 H   0  0  0  0  0  0  0  0  0  0  0  0
   15.8050    3.7690   -3.6060 H   0  0  0  0  0  0  0  0  0  0  0  0
   15.2907    1.0575   -6.6924 H   0  0  0  0  0  0  0  0  0  0  0  0
   16.5403    1.0858   -7.9504 H   0  0  0  0  0  0  0  0  0  0  0  0
   14.3780   -0.5192   -8.2183 H   0  0  0  0  0  0  0  0  0  0  0  0
   17.1028   -1.1890   -8.6523 H   0  0  0  0  0  0  0  0  0  0  0  0
   15.3778   -2.7954   -7.0775 H   0  0  0  0  0  0  0  0  0  0  0  0
   14.4206   -1.6392   -6.0914 H   0  0  0  0  0  0  0  0  0  0  0  0
  1 34  1  0  0  0  0
  1 35  1  0  0  0  0
  1 36  1  0  0  0  0
  1  2  1  0  0  0  0
  2  3  2  0  0  0  0
  2  4  1  0  0  0  0
  4 37  1  0  0  0  0
  5  4  1  0  0  0  0
  5 38  1  0  0  0  0
  5  6  1  0  0  0  0
  5 10  1  0  0  0  0
  6  7  1  0  0  0  0
  6  8  1  0  0  0  0
  6  9  1  0  0  0  0
  7 39  1  0  0  0  0
  7 40  1  0  0  0  0
  7 41  1  0  0  0  0
  8 42  1  0  0  0  0
  8 43  1  0  0  0  0
  8 44  1  0  0  0  0
  9 45  1  0  0  0  0
  9 46  1  0  0  0  0
  9 47  1  0  0  0  0
 10 11  2  0  0  0  0
 10 12  1  0  0  0  0
 12 33  1  0  0  0  0
 13 12  1  0  0  0  0
 13 30  1  0  0  0  0
 13 48  1  0  0  0  0
 13 14  1  0  0  0  0
 14 15  2  0  0  0  0
 14 16  1  0  0  0  0
 16 49  1  0  0  0  0
 16 17  1  0  0  0  0
 17 50  1  0  0  0  0
 17 51  1  0  0  0  0
 17 18  1  0  0  0  0
 18 19  1  0  0  0  0
 18 29  2  0  0  0  0
 19 52  1  0  0  0  0
 19 20  2  0  0  0  0
 20 53  1  0  0  0  0
 20 21  1  0  0  0  0
 21 28  2  0  0  0  0
 21 22  1  0  0  0  0
 22 23  2  0  0  0  0
 22 27  1  0  0  0  0
 23 24  1  0  0  0  0
 23 25  1  0  0  0  0
 24 54  1  0  0  0  0
 24 55  1  0  0  0  0
 24 56  1  0  0  0  0
 25 26  2  0  0  0  0
 26 57  1  0  0  0  0
 26 27  1  0  0  0  0
 28 58  1  0  0  0  0
 28 29  1  0  0  0  0
 29 59  1  0  0  0  0
 31 30  1  0  0  0  0
 30 60  1  0  0  0  0
 30 61  1  0  0  0  0
 31 33  1  0  0  0  0
 31 62  1  0  0  0  0
 31 32  1  0  0  0  0
 32 63  1  0  0  0  0
 33 64  1  0  0  0  0
 33 65  1  0  0  0  0
M  ZZC   1 c1
M  ZZC   2 c2
M  ZZC   3 o1
M  ZZC   4 n1
M  ZZC   5 c3
M  ZZC   6 c4
M  ZZC   7 c5
M  ZZC   8 c6
M  ZZC   9 c7
M  ZZC  10 c8
M  ZZC  11 o2
M  ZZC  12 n2
M  ZZC  13 c9
M  ZZC  14 c10
M  ZZC  15 o3
M  ZZC  16 n3
M  ZZC  17 c11
M  ZZC  18 c12
M  ZZC  19 c13
M  ZZC  20 c14
M  ZZC  21 c15
M  ZZC  22 c16
M  ZZC  23 c17
M  ZZC  24 c18
M  ZZC  25 n4
M  ZZC  26 c19
M  ZZC  27 s1
M  ZZC  28 c20
M  ZZC  29 c21
M  ZZC  30 c22
M  ZZC  31 c23
M  ZZC  32 o4
M  ZZC  33 c24
M  ZZC  34 h11
M  ZZC  35 h12
M  ZZC  36 h13
M  ZZC  37 h01
M  ZZC  38 h31
M  ZZC  39 h51
M  ZZC  40 h52
M  ZZC  41 h53
M  ZZC  42 h61
M  ZZC  43 h62
M  ZZC  44 h63
M  ZZC  45 h71
M  ZZC  46 h72
M  ZZC  47 h73
M  ZZC  48 h91
M  ZZC  49 h02
M  ZZC  50 h111
M  ZZC  51 h112
M  ZZC  52 h131
M  ZZC  53 h141
M  ZZC  54 h181
M  ZZC  55 h182
M  ZZC  56 h183
M  ZZC  57 h191
M  ZZC  58 h201
M  ZZC  59 h211
M  ZZC  60 h221
M  ZZC  61 h222
M  ZZC  62 h231
M  ZZC  63 h41
M  ZZC  64 h241
M  ZZC  65 h242
M  ZZM   1 1
M  ZZI   1 111
M  ZZM   2 3
M  ZZI   2 121
M  ZZM   3 7
M  ZZI   3 81
M  ZZM   4 10
M  ZZI   4 211
M  ZZM   5 1
M  ZZI   5 113
M  ZZM   6 1
M  ZZI   6 110
M  ZZM   7 1
M  ZZI   7 111
M  ZZM   8 1
M  ZZI   8 111
M  ZZM   9 1
M  ZZI   9 111
M  ZZM  10 3
M  ZZI  10 121
M  ZZM  11 7
M  ZZI  11 81
M  ZZM  12 10
M  ZZI  12 192
M  ZZM  13 1
M  ZZI  13 113
M  ZZM  14 3
M  ZZI  14 121
M  ZZM  15 7
M  ZZI  15 81
M  ZZM  16 10
M  ZZI  16 211
M  ZZM  17 1
M  ZZI  17 112
M  ZZM  18 37
M  ZZI  18 124
M  ZZM  19 37
M  ZZI  19 125
M  ZZM  20 37
M  ZZI  20 125
M  ZZM  21 37
M  ZZI  21 124
M  ZZM  22 63
M  ZZI  22 104
M  ZZM  23 64
M  ZZI  23 105
M  ZZM  24 1
M  ZZI  24 111
M  ZZM  25 66
M  ZZI  25 222
M  ZZM  26 63
M  ZZI  26 104
M  ZZM  27 44
M  ZZI  27 248
M  ZZM  28 37
M  ZZI  28 125
M  ZZM  29 37
M  ZZI  29 125
M  ZZM  30 1
M  ZZI  30 112
M  ZZM  31 1
M  ZZI  31 113
M  ZZM  32 6
M  ZZI  32 60
M  ZZM  33 1
M  ZZI  33 112
M  ZZM  34 5
M  ZZI  34 1
M  ZZM  35 5
M  ZZI  35 1
M  ZZM  36 5
M  ZZI  36 1
M  ZZM  37 28
M  ZZI  37 11
M  ZZM  38 5
M  ZZI  38 1
M  ZZM  39 5
M  ZZI  39 1
M  ZZM  40 5
M  ZZI  40 1
M  ZZM  41 5
M  ZZI  41 1
M  ZZM  42 5
M  ZZI  42 1
M  ZZM  43 5
M  ZZI  43 1
M  ZZM  44 5
M  ZZI  44 1
M  ZZM  45 5
M  ZZI  45 1
M  ZZM  46 5
M  ZZI  46 1
M  ZZM  47 5
M  ZZI  47 1
M  ZZM  48 5
M  ZZI  48 1
M  ZZM  49 28
M  ZZI  49 11
M  ZZM  50 5
M  ZZI  50 1
M  ZZM  51 5
M  ZZI  51 1
M  ZZM  52 5
M  ZZI  52 1
M  ZZM  53 5
M  ZZI  53 1
M  ZZM  54 5
M  ZZI  54 1
M  ZZM  55 5
M  ZZI  55 1
M  ZZM  56 5
M  ZZI  56 1
M  ZZM  57 5
M  ZZI  57 1
M  ZZM  58 5
M  ZZI  58 1
M  ZZM  59 5
M  ZZI  59 1
M  ZZM  60 5
M  ZZI  60 1
M  ZZM  61 5
M  ZZI  61 1
M  ZZM  62 5
M  ZZI  62 1
M  ZZM  63 21
M  ZZI  63 20
M  ZZM  64 5
M  ZZI  64 1
M  ZZM  65 5
M  ZZI  65 1
M  END
> <IX>
1

> <NAME>
VHL_4IM0_18.pdb

> <Score>
-24.107405

> <Natom>
65

> <Nflex>
8

> <Hbond>
-7.80719

> <Hphob>
-6.428717

> <VwInt>
-30.156118

> <Dsolv>
21.130999

> <SolEl>
10.314015

> <Eintl>
4.421077

> <RecConf>
ND

> <projPath>
VHL_maps/

> <NAME_>
VHL_4IM0_18.pdb

$$$$
