VHL_1ERR_10.pdb
  MOLSOFT 04032206373D

 68 70  0  0  1  0  0  0  0  0999 V2000
   15.8062   -6.2181   -5.4592 O   0  0  0  0  0  0  0  0  0  0  0  0
   16.8895   -5.8961   -5.0030 C   0  0  0  0  0  0  0  0  0  0  0  0
   17.1468   -4.7222   -4.3223 N   0  0  0  0  0  0  0  0  0  0  0  0
   16.1665   -3.6507   -4.0807 C   0  0  1  0  0  0  0  0  0  0  0  0
   15.8575   -3.4804   -2.5639 C   0  0  0  0  0  0  0  0  0  0  0  0
   15.3592   -4.8257   -2.0217 C   0  0  0  0  0  0  0  0  0  0  0  0
   14.7446   -2.4588   -2.3043 C   0  0  0  0  0  0  0  0  0  0  0  0
   17.0883   -3.0344   -1.7618 C   0  0  0  0  0  0  0  0  0  0  0  0
   16.7621   -2.4228   -4.7978 C   0  0  0  0  0  0  0  0  0  0  0  0
   17.9697   -2.2175   -4.7851 O   0  0  0  0  0  0  0  0  0  0  0  0
   15.8987   -1.5709   -5.4911 N   0  0  0  0  0  0  0  0  0  0  0  0
   16.4296   -0.6109   -6.4464 C   0  0  2  0  0  0  0  0  0  0  0  0
   16.9260    0.6682   -5.7689 C   0  0  0  0  0  0  0  0  0  0  0  0
   16.5367    1.0273   -4.6658 O   0  0  0  0  0  0  0  0  0  0  0  0
   17.8220    1.3829   -6.5475 N   0  0  0  0  0  0  0  0  0  0  0  0
   18.4308    2.6329   -6.1118 C   0  0  1  0  0  0  0  0  0  0  0  0
   19.8089    2.7964   -6.7581 C   0  0  0  0  0  0  0  0  0  0  0  0
   17.5042    3.8150   -6.3522 C   0  0  0  0  0  0  0  0  0  0  0  0
   16.5438    4.1456   -5.3971 C   0  0  0  0  0  0  0  0  0  0  0  0
   15.6621    5.1949   -5.5870 C   0  0  0  0  0  0  0  0  0  0  0  0
   15.7144    5.9599   -6.7444 C   0  0  0  0  0  0  0  0  0  0  0  0
   14.7813    7.0535   -6.9660 C   0  0  0  0  0  0  0  0  0  0  0  0
   13.8305    7.2278   -7.9602 C   0  0  0  0  0  0  0  0  0  0  0  0
   13.5087    6.2752   -9.0442 C   0  0  0  0  0  0  0  0  0  0  0  0
   13.1338    8.4175   -7.9019 N   0  0  0  0  0  0  0  0  0  0  0  0
   13.5473    9.1181   -6.8696 C   0  0  0  0  0  0  0  0  0  0  0  0
   14.7646    8.4083   -5.9077 S   0  0  0  0  0  0  0  0  0  0  0  0
   16.6709    5.6462   -7.7014 C   0  0  0  0  0  0  0  0  0  0  0  0
   17.5501    4.5942   -7.5087 C   0  0  0  0  0  0  0  0  0  0  0  0
   15.2708   -0.3511   -7.3961 C   0  0  0  0  0  0  0  0  0  0  0  0
   14.0393   -0.5030   -6.5195 C   0  0  1  0  0  0  0  0  0  0  0  0
   12.9371   -0.9829   -7.2874 O   0  0  0  0  0  0  0  0  0  0  0  0
   14.4482   -1.5245   -5.4679 C   0  0  0  0  0  0  0  0  0  0  0  0
   18.0849   -6.8000   -5.1220 C   0  0  0  0  0  0  0  0  0  0  0  0
   18.1066   -4.5411   -4.0511 H   0  0  0  0  0  0  0  0  0  0  0  0
   15.2436   -3.9398   -4.5811 H   0  0  0  0  0  0  0  0  0  0  0  0
   14.4807   -5.1796   -2.5707 H   0  0  0  0  0  0  0  0  0  0  0  0
   15.0748   -4.7443   -0.9702 H   0  0  0  0  0  0  0  0  0  0  0  0
   16.1220   -5.6028   -2.0980 H   0  0  0  0  0  0  0  0  0  0  0  0
   13.8343   -2.7103   -2.8574 H   0  0  0  0  0  0  0  0  0  0  0  0
   15.0558   -1.4459   -2.5736 H   0  0  0  0  0  0  0  0  0  0  0  0
   14.4723   -2.4260   -1.2441 H   0  0  0  0  0  0  0  0  0  0  0  0
   17.4422   -2.0471   -2.0743 H   0  0  0  0  0  0  0  0  0  0  0  0
   17.9174   -3.7298   -1.8754 H   0  0  0  0  0  0  0  0  0  0  0  0
   16.8667   -2.9743   -0.6913 H   0  0  0  0  0  0  0  0  0  0  0  0
   17.2715   -1.0579   -6.9797 H   0  0  0  0  0  0  0  0  0  0  0  0
   18.1155    0.9897   -7.4367 H   0  0  0  0  0  0  0  0  0  0  0  0
   18.5971    2.5513   -5.0313 H   0  0  0  0  0  0  0  0  0  0  0  0
   20.2940    3.7134   -6.4179 H   0  0  0  0  0  0  0  0  0  0  0  0
   19.7368    2.8394   -7.8494 H   0  0  0  0  0  0  0  0  0  0  0  0
   20.4913    1.9842   -6.4964 H   0  0  0  0  0  0  0  0  0  0  0  0
   16.4692    3.5720   -4.4779 H   0  0  0  0  0  0  0  0  0  0  0  0
   14.9203    5.4034   -4.8213 H   0  0  0  0  0  0  0  0  0  0  0  0
   14.2990    6.2678   -9.7986 H   0  0  0  0  0  0  0  0  0  0  0  0
   12.5736    6.5478   -9.5350 H   0  0  0  0  0  0  0  0  0  0  0  0
   13.3917    5.2592   -8.6554 H   0  0  0  0  0  0  0  0  0  0  0  0
   13.1461   10.0918   -6.6308 H   0  0  0  0  0  0  0  0  0  0  0  0
   16.7437    6.2322   -8.6139 H   0  0  0  0  0  0  0  0  0  0  0  0
   18.2813    4.3972   -8.2840 H   0  0  0  0  0  0  0  0  0  0  0  0
   15.3096    0.6307   -7.8795 H   0  0  0  0  0  0  0  0  0  0  0  0
   15.2577   -1.1011   -8.1956 H   0  0  0  0  0  0  0  0  0  0  0  0
   13.7711    0.4572   -6.0629 H   0  0  0  0  0  0  0  0  0  0  0  0
   12.1166   -0.7020   -6.8449 H   0  0  0  0  0  0  0  0  0  0  0  0
   14.0271   -2.5158   -5.6321 H   0  0  0  0  0  0  0  0  0  0  0  0
   14.1137   -1.1806   -4.4899 H   0  0  0  0  0  0  0  0  0  0  0  0
   17.9803   -7.4249   -6.0139 H   0  0  0  0  0  0  0  0  0  0  0  0
   18.1345   -7.4407   -4.2385 H   0  0  0  0  0  0  0  0  0  0  0  0
   19.0093   -6.2213   -5.2117 H   0  0  0  0  0  0  0  0  0  0  0  0
  1  2  2  0  0  0  0
  2  3  1  0  0  0  0
  2 34  1  0  0  0  0
  4  3  1  0  0  0  0
  3 35  1  0  0  0  0
  4  5  1  0  0  0  0
  4 36  1  0  0  0  0
  4  9  1  0  0  0  0
  5  6  1  0  0  0  0
  5  7  1  0  0  0  0
  5  8  1  0  0  0  0
  6 37  1  0  0  0  0
  6 38  1  0  0  0  0
  6 39  1  0  0  0  0
  7 40  1  0  0  0  0
  7 41  1  0  0  0  0
  7 42  1  0  0  0  0
  8 43  1  0  0  0  0
  8 44  1  0  0  0  0
  8 45  1  0  0  0  0
  9 10  2  0  0  0  0
  9 11  1  0  0  0  0
 11 33  1  0  0  0  0
 12 11  1  0  0  0  0
 12 30  1  0  0  0  0
 12 46  1  0  0  0  0
 12 13  1  0  0  0  0
 13 14  2  0  0  0  0
 13 15  1  0  0  0  0
 15 47  1  0  0  0  0
 16 15  1  0  0  0  0
 16 48  1  0  0  0  0
 16 17  1  0  0  0  0
 16 18  1  0  0  0  0
 17 49  1  0  0  0  0
 17 50  1  0  0  0  0
 17 51  1  0  0  0  0
 18 19  1  0  0  0  0
 18 29  2  0  0  0  0
 19 52  1  0  0  0  0
 19 20  2  0  0  0  0
 20 53  1  0  0  0  0
 20 21  1  0  0  0  0
 21 28  2  0  0  0  0
 21 22  1  0  0  0  0
 22 23  2  0  0  0  0
 22 27  1  0  0  0  0
 23 24  1  0  0  0  0
 23 25  1  0  0  0  0
 24 54  1  0  0  0  0
 24 55  1  0  0  0  0
 24 56  1  0  0  0  0
 25 26  2  0  0  0  0
 26 57  1  0  0  0  0
 26 27  1  0  0  0  0
 28 58  1  0  0  0  0
 28 29  1  0  0  0  0
 29 59  1  0  0  0  0
 31 30  1  0  0  0  0
 30 60  1  0  0  0  0
 30 61  1  0  0  0  0
 31 33  1  0  0  0  0
 31 62  1  0  0  0  0
 31 32  1  0  0  0  0
 32 63  1  0  0  0  0
 33 64  1  0  0  0  0
 33 65  1  0  0  0  0
 34 66  1  0  0  0  0
 34 67  1  0  0  0  0
 34 68  1  0  0  0  0
M  ZZC   1 o1
M  ZZC   2 c1
M  ZZC   3 n1
M  ZZC   4 c2
M  ZZC   5 c3
M  ZZC   6 c4
M  ZZC   7 c5
M  ZZC   8 c6
M  ZZC   9 c7
M  ZZC  10 o2
M  ZZC  11 n2
M  ZZC  12 c8
M  ZZC  13 c9
M  ZZC  14 o3
M  ZZC  15 n3
M  ZZC  16 c10
M  ZZC  17 c11
M  ZZC  18 c12
M  ZZC  19 c13
M  ZZC  20 c14
M  ZZC  21 c15
M  ZZC  22 c16
M  ZZC  23 c17
M  ZZC  24 c18
M  ZZC  25 n4
M  ZZC  26 c19
M  ZZC  27 s1
M  ZZC  28 c20
M  ZZC  29 c21
M  ZZC  30 c22
M  ZZC  31 c23
M  ZZC  32 o4
M  ZZC  33 c24
M  ZZC  34 c25
M  ZZC  35 h11
M  ZZC  36 h21
M  ZZC  37 h41
M  ZZC  38 h42
M  ZZC  39 h43
M  ZZC  40 h51
M  ZZC  41 h52
M  ZZC  42 h53
M  ZZC  43 h61
M  ZZC  44 h62
M  ZZC  45 h63
M  ZZC  46 h81
M  ZZC  47 h31
M  ZZC  48 h101
M  ZZC  49 h111
M  ZZC  50 h112
M  ZZC  51 h113
M  ZZC  52 h131
M  ZZC  53 h141
M  ZZC  54 h181
M  ZZC  55 h182
M  ZZC  56 h183
M  ZZC  57 h191
M  ZZC  58 h201
M  ZZC  59 h211
M  ZZC  60 h221
M  ZZC  61 h222
M  ZZC  62 h231
M  ZZC  63 h01
M  ZZC  64 h241
M  ZZC  65 h242
M  ZZC  66 h251
M  ZZC  67 h252
M  ZZC  68 h253
M  ZZM   1 7
M  ZZI   1 81
M  ZZM   2 3
M  ZZI   2 121
M  ZZM   3 10
M  ZZI   3 211
M  ZZM   4 1
M  ZZI   4 113
M  ZZM   5 1
M  ZZI   5 110
M  ZZM   6 1
M  ZZI   6 111
M  ZZM   7 1
M  ZZI   7 111
M  ZZM   8 1
M  ZZI   8 111
M  ZZM   9 3
M  ZZI   9 121
M  ZZM  10 7
M  ZZI  10 81
M  ZZM  11 10
M  ZZI  11 192
M  ZZM  12 1
M  ZZI  12 113
M  ZZM  13 3
M  ZZI  13 121
M  ZZM  14 7
M  ZZI  14 81
M  ZZM  15 10
M  ZZI  15 211
M  ZZM  16 1
M  ZZI  16 113
M  ZZM  17 1
M  ZZI  17 111
M  ZZM  18 37
M  ZZI  18 124
M  ZZM  19 37
M  ZZI  19 125
M  ZZM  20 37
M  ZZI  20 125
M  ZZM  21 37
M  ZZI  21 124
M  ZZM  22 63
M  ZZI  22 104
M  ZZM  23 64
M  ZZI  23 105
M  ZZM  24 1
M  ZZI  24 111
M  ZZM  25 66
M  ZZI  25 222
M  ZZM  26 63
M  ZZI  26 104
M  ZZM  27 44
M  ZZI  27 248
M  ZZM  28 37
M  ZZI  28 125
M  ZZM  29 37
M  ZZI  29 125
M  ZZM  30 1
M  ZZI  30 112
M  ZZM  31 1
M  ZZI  31 113
M  ZZM  32 6
M  ZZI  32 60
M  ZZM  33 1
M  ZZI  33 112
M  ZZM  34 1
M  ZZI  34 111
M  ZZM  35 28
M  ZZI  35 11
M  ZZM  36 5
M  ZZI  36 1
M  ZZM  37 5
M  ZZI  37 1
M  ZZM  38 5
M  ZZI  38 1
M  ZZM  39 5
M  ZZI  39 1
M  ZZM  40 5
M  ZZI  40 1
M  ZZM  41 5
M  ZZI  41 1
M  ZZM  42 5
M  ZZI  42 1
M  ZZM  43 5
M  ZZI  43 1
M  ZZM  44 5
M  ZZI  44 1
M  ZZM  45 5
M  ZZI  45 1
M  ZZM  46 5
M  ZZI  46 1
M  ZZM  47 28
M  ZZI  47 11
M  ZZM  48 5
M  ZZI  48 1
M  ZZM  49 5
M  ZZI  49 1
M  ZZM  50 5
M  ZZI  50 1
M  ZZM  51 5
M  ZZI  51 1
M  ZZM  52 5
M  ZZI  52 1
M  ZZM  53 5
M  ZZI  53 1
M  ZZM  54 5
M  ZZI  54 1
M  ZZM  55 5
M  ZZI  55 1
M  ZZM  56 5
M  ZZI  56 1
M  ZZM  57 5
M  ZZI  57 1
M  ZZM  58 5
M  ZZI  58 1
M  ZZM  59 5
M  ZZI  59 1
M  ZZM  60 5
M  ZZI  60 1
M  ZZM  61 5
M  ZZI  61 1
M  ZZM  62 5
M  ZZI  62 1
M  ZZM  63 21
M  ZZI  63 20
M  ZZM  64 5
M  ZZI  64 1
M  ZZM  65 5
M  ZZI  65 1
M  ZZM  66 5
M  ZZI  66 1
M  ZZM  67 5
M  ZZI  67 1
M  ZZM  68 5
M  ZZI  68 1
M  END
> <IX>
1

> <NAME>
VHL_1ERR_10.pdb

> <Score>
-3.448404

> <Natom>
68

> <Nflex>
8

> <Hbond>
-5.019264

> <Hphob>
-6.817997

> <VwInt>
-28.254218

> <Dsolv>
22.946197

> <SolEl>
22.919012

> <Eintl>
8.227358

> <RecConf>
ND

> <projPath>
VHL_maps/

> <NAME_>
VHL_1ERR_10.pdb

$$$$
