VHL_5T8E_57.pdb
  MOLSOFT 04032206473D

 89 93  0  0  1  0  0  0  0  0999 V2000
   25.0400    4.3859   -8.0390 C   0  0  0  0  0  0  0  0  0  0  0  0
   24.7593    4.6104   -6.5634 C   0  0  0  0  0  0  0  0  0  0  0  0
   23.2926    4.9447   -6.3409 C   0  0  0  0  0  0  0  0  0  0  0  0
   22.3894    3.9426   -6.9044 N   0  0  0  0  0  0  0  0  0  0  0  0
   21.1561    3.7481   -6.2678 C   0  0  0  0  0  0  0  0  0  0  0  0
   20.8584    4.3099   -5.2237 O   0  0  0  0  0  0  0  0  0  0  0  0
   20.1889    2.7754   -6.9204 C   0  0  0  0  0  0  0  0  0  0  0  0
   18.8132    2.7356   -6.2241 C   0  0  2  0  0  0  0  0  0  0  0  0
   18.1021    1.5278   -6.6304 N   0  0  0  0  0  0  0  0  0  0  0  0
   17.1753    0.8799   -5.8280 C   0  0  0  0  0  0  0  0  0  0  0  0
   16.8568    1.2520   -4.7068 O   0  0  0  0  0  0  0  0  0  0  0  0
   16.5484   -0.3416   -6.5049 C   0  0  1  0  0  0  0  0  0  0  0  0
   15.9517   -1.2644   -5.5474 N   0  0  0  0  0  0  0  0  0  0  0  0
   16.7516   -2.1304   -4.8030 C   0  0  0  0  0  0  0  0  0  0  0  0
   17.9724   -2.0283   -4.8022 O   0  0  0  0  0  0  0  0  0  0  0  0
   16.0493   -3.2391   -3.9965 C   0  0  1  0  0  0  0  0  0  0  0  0
   16.8527   -4.4385   -4.2368 N   0  0  0  0  0  0  0  0  0  0  0  0
   16.3792   -5.5596   -4.8822 C   0  0  0  0  0  0  0  0  0  0  0  0
   15.2777   -5.6756   -5.4050 O   0  0  0  0  0  0  0  0  0  0  0  0
   17.3442   -6.6831   -4.8558 C   0  0  0  0  0  0  0  0  0  0  0  0
   17.6423   -7.1491   -3.5894 F   0  0  0  0  0  0  0  0  0  0  0  0
   18.4898   -6.7660   -5.8289 C   0  0  0  0  0  0  0  0  0  0  0  0
   17.3446   -7.7324   -5.9262 C   0  0  0  0  0  0  0  0  0  0  0  0
   15.8837   -2.9682   -2.4699 C   0  0  0  0  0  0  0  0  0  0  0  0
   17.1971   -2.5297   -1.8044 C   0  0  0  0  0  0  0  0  0  0  0  0
   14.8292   -1.8832   -2.2119 C   0  0  0  0  0  0  0  0  0  0  0  0
   15.4019   -4.2529   -1.7759 C   0  0  0  0  0  0  0  0  0  0  0  0
   14.5068   -1.2560   -5.6510 C   0  0  0  0  0  0  0  0  0  0  0  0
   14.1712   -0.0776   -6.5485 C   0  0  2  0  0  0  0  0  0  0  0  0
   13.0121   -0.3462   -7.3353 O   0  0  0  0  0  0  0  0  0  0  0  0
   15.4019    0.0481   -7.4297 C   0  0  0  0  0  0  0  0  0  0  0  0
   17.9251    3.9548   -6.4578 C   0  0  0  0  0  0  0  0  0  0  0  0
   17.0215    4.3433   -5.4694 C   0  0  0  0  0  0  0  0  0  0  0  0
   16.1214    5.3761   -5.6676 C   0  0  0  0  0  0  0  0  0  0  0  0
   16.0946    6.0728   -6.8683 C   0  0  0  0  0  0  0  0  0  0  0  0
   15.1177    7.1285   -7.0997 C   0  0  0  0  0  0  0  0  0  0  0  0
   14.0766    7.2080   -8.0154 C   0  0  0  0  0  0  0  0  0  0  0  0
   13.6836    6.1768   -9.0010 C   0  0  0  0  0  0  0  0  0  0  0  0
   13.3419    8.3763   -7.9680 N   0  0  0  0  0  0  0  0  0  0  0  0
   13.8170    9.1566   -7.0234 C   0  0  0  0  0  0  0  0  0  0  0  0
   15.1513    8.5578   -6.1437 S   0  0  0  0  0  0  0  0  0  0  0  0
   17.0128    5.7218   -7.8497 C   0  0  0  0  0  0  0  0  0  0  0  0
   17.9115    4.6852   -7.6477 C   0  0  0  0  0  0  0  0  0  0  0  0
   22.6813    3.4833   -8.2653 C   0  0  0  0  0  0  0  0  0  0  0  0
   24.1619    3.2687   -8.5704 C   0  0  0  0  0  0  0  0  0  0  0  0
   24.8509    5.3067   -8.6012 H   0  0  0  0  0  0  0  0  0  0  0  0
   26.0944    4.1293   -8.1847 H   0  0  0  0  0  0  0  0  0  0  0  0
   25.0231    3.7093   -5.9986 H   0  0  0  0  0  0  0  0  0  0  0  0
   25.3873    5.4219   -6.1833 H   0  0  0  0  0  0  0  0  0  0  0  0
   23.1042    5.0606   -5.2692 H   0  0  0  0  0  0  0  0  0  0  0  0
   23.0454    5.9028   -6.8116 H   0  0  0  0  0  0  0  0  0  0  0  0
   20.0825    3.0129   -7.9807 H   0  0  0  0  0  0  0  0  0  0  0  0
   20.6519    1.7839   -6.8692 H   0  0  0  0  0  0  0  0  0  0  0  0
   18.9831    2.6462   -5.1445 H   0  0  0  0  0  0  0  0  0  0  0  0
   18.3230    1.1196   -7.5324 H   0  0  0  0  0  0  0  0  0  0  0  0
   17.3308   -0.8633   -7.0613 H   0  0  0  0  0  0  0  0  0  0  0  0
   15.0603   -3.4264   -4.4216 H   0  0  0  0  0  0  0  0  0  0  0  0
   17.8258   -4.4351   -3.9410 H   0  0  0  0  0  0  0  0  0  0  0  0
   18.5883   -5.9814   -6.5665 H   0  0  0  0  0  0  0  0  0  0  0  0
   19.4351   -7.1432   -5.4604 H   0  0  0  0  0  0  0  0  0  0  0  0
   17.4814   -8.7440   -5.5729 H   0  0  0  0  0  0  0  0  0  0  0  0
   16.6539   -7.6309   -6.7512 H   0  0  0  0  0  0  0  0  0  0  0  0
   17.0732   -2.4078   -0.7235 H   0  0  0  0  0  0  0  0  0  0  0  0
   17.5560   -1.5726   -2.1948 H   0  0  0  0  0  0  0  0  0  0  0  0
   17.9882   -3.2673   -1.9519 H   0  0  0  0  0  0  0  0  0  0  0  0
   15.1252   -0.9207   -2.6394 H   0  0  0  0  0  0  0  0  0  0  0  0
   14.6756   -1.7209   -1.1400 H   0  0  0  0  0  0  0  0  0  0  0  0
   13.8580   -2.1620   -2.6327 H   0  0  0  0  0  0  0  0  0  0  0  0
   15.1448   -4.0710   -0.7276 H   0  0  0  0  0  0  0  0  0  0  0  0
   16.1690   -5.0316   -1.7848 H   0  0  0  0  0  0  0  0  0  0  0  0
   14.5149   -4.6650   -2.2661 H   0  0  0  0  0  0  0  0  0  0  0  0
   14.1841   -2.2034   -6.0845 H   0  0  0  0  0  0  0  0  0  0  0  0
   14.0362   -1.1627   -4.6722 H   0  0  0  0  0  0  0  0  0  0  0  0
   14.0190    0.8405   -5.9685 H   0  0  0  0  0  0  0  0  0  0  0  0
   12.2325   -0.0384   -6.8398 H   0  0  0  0  0  0  0  0  0  0  0  0
   15.4975    1.0515   -7.8578 H   0  0  0  0  0  0  0  0  0  0  0  0
   15.3357   -0.6515   -8.2715 H   0  0  0  0  0  0  0  0  0  0  0  0
   16.9958    3.8160   -4.5203 H   0  0  0  0  0  0  0  0  0  0  0  0
   15.4193    5.6186   -4.8750 H   0  0  0  0  0  0  0  0  0  0  0  0
   14.4419    6.0805   -9.7825 H   0  0  0  0  0  0  0  0  0  0  0  0
   12.7355    6.4340   -9.4802 H   0  0  0  0  0  0  0  0  0  0  0  0
   13.5577    5.2020   -8.5204 H   0  0  0  0  0  0  0  0  0  0  0  0
   13.3935   10.1257   -6.8041 H   0  0  0  0  0  0  0  0  0  0  0  0
   17.0326    6.2599   -8.7936 H   0  0  0  0  0  0  0  0  0  0  0  0
   18.5977    4.4514   -8.4516 H   0  0  0  0  0  0  0  0  0  0  0  0
   22.1544    2.5482   -8.4538 H   0  0  0  0  0  0  0  0  0  0  0  0
   22.2656    4.2335   -8.9465 H   0  0  0  0  0  0  0  0  0  0  0  0
   24.3044    3.1606   -9.6503 H   0  0  0  0  0  0  0  0  0  0  0  0
   24.4949    2.3276   -8.1285 H   0  0  0  0  0  0  0  0  0  0  0  0
  1 46  1  0  0  0  0
  1 47  1  0  0  0  0
  1  2  1  0  0  0  0
  1 45  1  0  0  0  0
  2 48  1  0  0  0  0
  2 49  1  0  0  0  0
  2  3  1  0  0  0  0
  3 50  1  0  0  0  0
  3 51  1  0  0  0  0
  3  4  1  0  0  0  0
  4 44  1  0  0  0  0
  4  5  1  0  0  0  0
  5  6  2  0  0  0  0
  5  7  1  0  0  0  0
  7 52  1  0  0  0  0
  7 53  1  0  0  0  0
  8  7  1  0  0  0  0
  8 54  1  0  0  0  0
  8 32  1  0  0  0  0
  8  9  1  0  0  0  0
  9 55  1  0  0  0  0
  9 10  1  0  0  0  0
 10 11  2  0  0  0  0
 12 10  1  0  0  0  0
 12 56  1  0  0  0  0
 12 31  1  0  0  0  0
 12 13  1  0  0  0  0
 13 28  1  0  0  0  0
 13 14  1  0  0  0  0
 14 15  2  0  0  0  0
 16 14  1  0  0  0  0
 16 57  1  0  0  0  0
 16 24  1  0  0  0  0
 16 17  1  0  0  0  0
 17 58  1  0  0  0  0
 17 18  1  0  0  0  0
 18 19  2  0  0  0  0
 18 20  1  0  0  0  0
 20 21  1  0  0  0  0
 20 22  1  0  0  0  0
 20 23  1  0  0  0  0
 22 59  1  0  0  0  0
 22 60  1  0  0  0  0
 22 23  1  0  0  0  0
 23 61  1  0  0  0  0
 23 62  1  0  0  0  0
 24 25  1  0  0  0  0
 24 26  1  0  0  0  0
 24 27  1  0  0  0  0
 25 63  1  0  0  0  0
 25 64  1  0  0  0  0
 25 65  1  0  0  0  0
 26 66  1  0  0  0  0
 26 67  1  0  0  0  0
 26 68  1  0  0  0  0
 27 69  1  0  0  0  0
 27 70  1  0  0  0  0
 27 71  1  0  0  0  0
 29 28  1  0  0  0  0
 28 72  1  0  0  0  0
 28 73  1  0  0  0  0
 29 31  1  0  0  0  0
 29 74  1  0  0  0  0
 29 30  1  0  0  0  0
 30 75  1  0  0  0  0
 31 76  1  0  0  0  0
 31 77  1  0  0  0  0
 32 33  1  0  0  0  0
 32 43  2  0  0  0  0
 33 78  1  0  0  0  0
 33 34  2  0  0  0  0
 34 79  1  0  0  0  0
 34 35  1  0  0  0  0
 35 42  2  0  0  0  0
 35 36  1  0  0  0  0
 36 37  2  0  0  0  0
 36 41  1  0  0  0  0
 37 38  1  0  0  0  0
 37 39  1  0  0  0  0
 38 80  1  0  0  0  0
 38 81  1  0  0  0  0
 38 82  1  0  0  0  0
 39 40  2  0  0  0  0
 40 83  1  0  0  0  0
 40 41  1  0  0  0  0
 42 84  1  0  0  0  0
 42 43  1  0  0  0  0
 43 85  1  0  0  0  0
 44 86  1  0  0  0  0
 44 87  1  0  0  0  0
 44 45  1  0  0  0  0
 45 88  1  0  0  0  0
 45 89  1  0  0  0  0
M  ZZC   1 c1
M  ZZC   2 c2
M  ZZC   3 c3
M  ZZC   4 n1
M  ZZC   5 c4
M  ZZC   6 o1
M  ZZC   7 c5
M  ZZC   8 c6
M  ZZC   9 n2
M  ZZC  10 c7
M  ZZC  11 o2
M  ZZC  12 c8
M  ZZC  13 n3
M  ZZC  14 c9
M  ZZC  15 o3
M  ZZC  16 c10
M  ZZC  17 n4
M  ZZC  18 c11
M  ZZC  19 o4
M  ZZC  20 c12
M  ZZC  21 f1
M  ZZC  22 c13
M  ZZC  23 c14
M  ZZC  24 c15
M  ZZC  25 c16
M  ZZC  26 c17
M  ZZC  27 c18
M  ZZC  28 c19
M  ZZC  29 c20
M  ZZC  30 o5
M  ZZC  31 c21
M  ZZC  32 c22
M  ZZC  33 c23
M  ZZC  34 c24
M  ZZC  35 c25
M  ZZC  36 c26
M  ZZC  37 c27
M  ZZC  38 c28
M  ZZC  39 n5
M  ZZC  40 c29
M  ZZC  41 s1
M  ZZC  42 c30
M  ZZC  43 c31
M  ZZC  44 c32
M  ZZC  45 c33
M  ZZC  46 h11
M  ZZC  47 h12
M  ZZC  48 h21
M  ZZC  49 h22
M  ZZC  50 h31
M  ZZC  51 h32
M  ZZC  52 h51
M  ZZC  53 h52
M  ZZC  54 h61
M  ZZC  55 h01
M  ZZC  56 h81
M  ZZC  57 h101
M  ZZC  58 h41
M  ZZC  59 h131
M  ZZC  60 h132
M  ZZC  61 h141
M  ZZC  62 h142
M  ZZC  63 h161
M  ZZC  64 h162
M  ZZC  65 h163
M  ZZC  66 h171
M  ZZC  67 h172
M  ZZC  68 h173
M  ZZC  69 h181
M  ZZC  70 h182
M  ZZC  71 h183
M  ZZC  72 h191
M  ZZC  73 h192
M  ZZC  74 h201
M  ZZC  75 h02
M  ZZC  76 h211
M  ZZC  77 h212
M  ZZC  78 h231
M  ZZC  79 h241
M  ZZC  80 h281
M  ZZC  81 h282
M  ZZC  82 h283
M  ZZC  83 h291
M  ZZC  84 h301
M  ZZC  85 h311
M  ZZC  86 h321
M  ZZC  87 h322
M  ZZC  88 h331
M  ZZC  89 h332
M  ZZM   1 1
M  ZZI   1 112
M  ZZM   2 1
M  ZZI   2 112
M  ZZM   3 1
M  ZZI   3 112
M  ZZM   4 10
M  ZZI   4 192
M  ZZM   5 3
M  ZZI   5 121
M  ZZM   6 7
M  ZZI   6 81
M  ZZM   7 1
M  ZZI   7 112
M  ZZM   8 1
M  ZZI   8 113
M  ZZM   9 10
M  ZZI   9 211
M  ZZM  10 3
M  ZZI  10 121
M  ZZM  11 7
M  ZZI  11 81
M  ZZM  12 1
M  ZZI  12 113
M  ZZM  13 10
M  ZZI  13 192
M  ZZM  14 3
M  ZZI  14 121
M  ZZM  15 7
M  ZZI  15 81
M  ZZM  16 1
M  ZZI  16 113
M  ZZM  17 10
M  ZZI  17 211
M  ZZM  18 3
M  ZZI  18 121
M  ZZM  19 7
M  ZZI  19 81
M  ZZM  20 22
M  ZZI  20 109
M  ZZM  21 11
M  ZZI  21 90
M  ZZM  22 22
M  ZZI  22 109
M  ZZM  23 22
M  ZZI  23 109
M  ZZM  24 1
M  ZZI  24 110
M  ZZM  25 1
M  ZZI  25 111
M  ZZM  26 1
M  ZZI  26 111
M  ZZM  27 1
M  ZZI  27 111
M  ZZM  28 1
M  ZZI  28 112
M  ZZM  29 1
M  ZZI  29 113
M  ZZM  30 6
M  ZZI  30 60
M  ZZM  31 1
M  ZZI  31 112
M  ZZM  32 37
M  ZZI  32 124
M  ZZM  33 37
M  ZZI  33 125
M  ZZM  34 37
M  ZZI  34 125
M  ZZM  35 37
M  ZZI  35 124
M  ZZM  36 63
M  ZZI  36 104
M  ZZM  37 64
M  ZZI  37 105
M  ZZM  38 1
M  ZZI  38 111
M  ZZM  39 66
M  ZZI  39 222
M  ZZM  40 63
M  ZZI  40 104
M  ZZM  41 44
M  ZZI  41 248
M  ZZM  42 37
M  ZZI  42 125
M  ZZM  43 37
M  ZZI  43 125
M  ZZM  44 1
M  ZZI  44 112
M  ZZM  45 1
M  ZZI  45 112
M  ZZM  46 5
M  ZZI  46 1
M  ZZM  47 5
M  ZZI  47 1
M  ZZM  48 5
M  ZZI  48 1
M  ZZM  49 5
M  ZZI  49 1
M  ZZM  50 5
M  ZZI  50 1
M  ZZM  51 5
M  ZZI  51 1
M  ZZM  52 5
M  ZZI  52 1
M  ZZM  53 5
M  ZZI  53 1
M  ZZM  54 5
M  ZZI  54 1
M  ZZM  55 28
M  ZZI  55 11
M  ZZM  56 5
M  ZZI  56 1
M  ZZM  57 5
M  ZZI  57 1
M  ZZM  58 28
M  ZZI  58 11
M  ZZM  59 5
M  ZZI  59 1
M  ZZM  60 5
M  ZZI  60 1
M  ZZM  61 5
M  ZZI  61 1
M  ZZM  62 5
M  ZZI  62 1
M  ZZM  63 5
M  ZZI  63 1
M  ZZM  64 5
M  ZZI  64 1
M  ZZM  65 5
M  ZZI  65 1
M  ZZM  66 5
M  ZZI  66 1
M  ZZM  67 5
M  ZZI  67 1
M  ZZM  68 5
M  ZZI  68 1
M  ZZM  69 5
M  ZZI  69 1
M  ZZM  70 5
M  ZZI  70 1
M  ZZM  71 5
M  ZZI  71 1
M  ZZM  72 5
M  ZZI  72 1
M  ZZM  73 5
M  ZZI  73 1
M  ZZM  74 5
M  ZZI  74 1
M  ZZM  75 21
M  ZZI  75 20
M  ZZM  76 5
M  ZZI  76 1
M  ZZM  77 5
M  ZZI  77 1
M  ZZM  78 5
M  ZZI  78 1
M  ZZM  79 5
M  ZZI  79 1
M  ZZM  80 5
M  ZZI  80 1
M  ZZM  81 5
M  ZZI  81 1
M  ZZM  82 5
M  ZZI  82 1
M  ZZM  83 5
M  ZZI  83 1
M  ZZM  84 5
M  ZZI  84 1
M  ZZM  85 5
M  ZZI  85 1
M  ZZM  86 5
M  ZZI  86 1
M  ZZM  87 5
M  ZZI  87 1
M  ZZM  88 5
M  ZZI  88 1
M  ZZM  89 5
M  ZZI  89 1
M  END
> <IX>
1

> <NAME>
VHL_5T8E_57.pdb

> <Score>
-6.413157

> <Natom>
89

> <Nflex>
12

> <Hbond>
-4.311966

> <Hphob>
-8.527821

> <VwInt>
-32.930076

> <Dsolv>
22.689024

> <SolEl>
22.625484

> <Eintl>
6.650412

> <RecConf>
ND

> <projPath>
VHL_maps/

> <NAME_>
VHL_5T8E_57.pdb

$$$$
