VHL_5F1H_7.pdb
  MOLSOFT 04032206413D

 70 73  0  0  1  0  0  0  0  0999 V2000
   17.6530   -7.0429   -3.6123 F   0  0  0  0  0  0  0  0  0  0  0  0
   17.4385   -6.6816   -4.9292 C   0  0  0  0  0  0  0  0  0  0  0  0
   16.5136   -5.5409   -5.1037 C   0  0  0  0  0  0  0  0  0  0  0  0
   15.4145   -5.6890   -5.6223 O   0  0  0  0  0  0  0  0  0  0  0  0
   16.9983   -4.3662   -4.5707 N   0  0  0  0  0  0  0  0  0  0  0  0
   16.1846   -3.1583   -4.4348 C   0  0  1  0  0  0  0  0  0  0  0  0
   15.7261   -2.9325   -2.9630 C   0  0  0  0  0  0  0  0  0  0  0  0
   14.6829   -1.8060   -2.9097 C   0  0  0  0  0  0  0  0  0  0  0  0
   16.8952   -2.5717   -2.0311 C   0  0  0  0  0  0  0  0  0  0  0  0
   15.0617   -4.2082   -2.4143 C   0  0  0  0  0  0  0  0  0  0  0  0
   17.0132   -2.0056   -5.0276 C   0  0  0  0  0  0  0  0  0  0  0  0
   18.1979   -1.8687   -4.7574 O   0  0  0  0  0  0  0  0  0  0  0  0
   16.3666   -1.0939   -5.8604 N   0  0  0  0  0  0  0  0  0  0  0  0
   17.0887    0.0562   -6.3930 C   0  0  2  0  0  0  0  0  0  0  0  0
   17.4717    1.1305   -5.3848 C   0  0  0  0  0  0  0  0  0  0  0  0
   16.9457    1.2484   -4.2862 O   0  0  0  0  0  0  0  0  0  0  0  0
   18.4128    2.0024   -5.9021 N   0  0  0  0  0  0  0  0  0  0  0  0
   18.7394    3.2556   -5.2627 C   0  0  0  0  0  0  0  0  0  0  0  0
   17.7534    4.3187   -5.6740 C   0  0  0  0  0  0  0  0  0  0  0  0
   17.8641    4.9994   -6.8841 C   0  0  0  0  0  0  0  0  0  0  0  0
   18.9400    4.7254   -7.7107 O   0  0  0  0  0  0  0  0  0  0  0  0
   16.9212    5.9379   -7.2799 C   0  0  0  0  0  0  0  0  0  0  0  0
   15.8337    6.2170   -6.4592 C   0  0  0  0  0  0  0  0  0  0  0  0
   14.8519    7.2170   -6.8473 C   0  0  0  0  0  0  0  0  0  0  0  0
   13.9953    7.2757   -7.9385 C   0  0  0  0  0  0  0  0  0  0  0  0
   13.8414    6.2589   -9.0034 C   0  0  0  0  0  0  0  0  0  0  0  0
   13.2123    8.4105   -8.0015 N   0  0  0  0  0  0  0  0  0  0  0  0
   13.4741    9.1822   -6.9703 C   0  0  0  0  0  0  0  0  0  0  0  0
   14.6420    8.6144   -5.8693 S   0  0  0  0  0  0  0  0  0  0  0  0
   15.7087    5.5321   -5.2551 C   0  0  0  0  0  0  0  0  0  0  0  0
   16.6531    4.5976   -4.8691 C   0  0  0  0  0  0  0  0  0  0  0  0
   16.1534    0.6657   -7.4300 C   0  0  0  0  0  0  0  0  0  0  0  0
   15.3297   -0.5134   -7.8875 C   0  0  1  0  0  0  0  0  0  0  0  0
   16.0603   -1.2484   -8.8804 O   0  0  0  0  0  0  0  0  0  0  0  0
   15.1572   -1.3417   -6.6222 C   0  0  0  0  0  0  0  0  0  0  0  0
   17.4285   -7.8282   -5.8940 C   0  0  0  0  0  0  0  0  0  0  0  0
   18.6128   -6.9065   -5.8451 C   0  0  0  0  0  0  0  0  0  0  0  0
   17.9470   -4.3562   -4.2051 H   0  0  0  0  0  0  0  0  0  0  0  0
   15.2873   -3.2980   -5.0329 H   0  0  0  0  0  0  0  0  0  0  0  0
   15.1026   -0.8462   -3.2244 H   0  0  0  0  0  0  0  0  0  0  0  0
   14.2904   -1.6690   -1.8965 H   0  0  0  0  0  0  0  0  0  0  0  0
   13.8301   -2.0238   -3.5605 H   0  0  0  0  0  0  0  0  0  0  0  0
   16.5614   -2.4878   -0.9918 H   0  0  0  0  0  0  0  0  0  0  0  0
   17.3507   -1.6127   -2.2951 H   0  0  0  0  0  0  0  0  0  0  0  0
   17.6820   -3.3311   -2.0541 H   0  0  0  0  0  0  0  0  0  0  0  0
   14.6556   -4.0454   -1.4111 H   0  0  0  0  0  0  0  0  0  0  0  0
   15.7664   -5.0413   -2.3323 H   0  0  0  0  0  0  0  0  0  0  0  0
   14.2352   -4.5354   -3.0524 H   0  0  0  0  0  0  0  0  0  0  0  0
   18.0021   -0.3164   -6.8553 H   0  0  0  0  0  0  0  0  0  0  0  0
   18.8297    1.8170   -6.8090 H   0  0  0  0  0  0  0  0  0  0  0  0
   18.7354    3.1201   -4.1755 H   0  0  0  0  0  0  0  0  0  0  0  0
   19.7599    3.5292   -5.5499 H   0  0  0  0  0  0  0  0  0  0  0  0
   18.9231    5.3631   -8.4465 H   0  0  0  0  0  0  0  0  0  0  0  0
   17.0355    6.4623   -8.2243 H   0  0  0  0  0  0  0  0  0  0  0  0
   14.7612    6.1625   -9.5869 H   0  0  0  0  0  0  0  0  0  0  0  0
   13.0367    6.5287   -9.6922 H   0  0  0  0  0  0  0  0  0  0  0  0
   13.5989    5.2811   -8.5767 H   0  0  0  0  0  0  0  0  0  0  0  0
   12.9860   10.1302   -6.8100 H   0  0  0  0  0  0  0  0  0  0  0  0
   14.8595    5.7164   -4.6028 H   0  0  0  0  0  0  0  0  0  0  0  0
   16.5160    4.0709   -3.9285 H   0  0  0  0  0  0  0  0  0  0  0  0
   15.5042    1.4247   -6.9773 H   0  0  0  0  0  0  0  0  0  0  0  0
   16.7067    1.1338   -8.2491 H   0  0  0  0  0  0  0  0  0  0  0  0
   14.3752   -0.2029   -8.3144 H   0  0  0  0  0  0  0  0  0  0  0  0
   16.9421   -1.4386   -8.5094 H   0  0  0  0  0  0  0  0  0  0  0  0
   15.0534   -2.4041   -6.8545 H   0  0  0  0  0  0  0  0  0  0  0  0
   14.3087   -0.9959   -6.0222 H   0  0  0  0  0  0  0  0  0  0  0  0
   17.5070   -8.8068   -5.4416 H   0  0  0  0  0  0  0  0  0  0  0  0
   16.7719   -7.7764   -6.7518 H   0  0  0  0  0  0  0  0  0  0  0  0
   18.7718   -6.2108   -6.6583 H   0  0  0  0  0  0  0  0  0  0  0  0
   19.5260   -7.2875   -5.4064 H   0  0  0  0  0  0  0  0  0  0  0  0
  2  1  1  0  0  0  0
  2 36  1  0  0  0  0
  2  3  1  0  0  0  0
  2 37  1  0  0  0  0
  3  4  2  0  0  0  0
  3  5  1  0  0  0  0
  5 38  1  0  0  0  0
  6  5  1  0  0  0  0
  6 39  1  0  0  0  0
  6  7  1  0  0  0  0
  6 11  1  0  0  0  0
  7  8  1  0  0  0  0
  7  9  1  0  0  0  0
  7 10  1  0  0  0  0
  8 40  1  0  0  0  0
  8 41  1  0  0  0  0
  8 42  1  0  0  0  0
  9 43  1  0  0  0  0
  9 44  1  0  0  0  0
  9 45  1  0  0  0  0
 10 46  1  0  0  0  0
 10 47  1  0  0  0  0
 10 48  1  0  0  0  0
 11 12  2  0  0  0  0
 11 13  1  0  0  0  0
 13 35  1  0  0  0  0
 14 13  1  0  0  0  0
 14 32  1  0  0  0  0
 14 49  1  0  0  0  0
 14 15  1  0  0  0  0
 15 16  2  0  0  0  0
 15 17  1  0  0  0  0
 17 50  1  0  0  0  0
 17 18  1  0  0  0  0
 18 51  1  0  0  0  0
 18 52  1  0  0  0  0
 18 19  1  0  0  0  0
 19 20  2  0  0  0  0
 19 31  1  0  0  0  0
 20 21  1  0  0  0  0
 20 22  1  0  0  0  0
 21 53  1  0  0  0  0
 22 54  1  0  0  0  0
 22 23  2  0  0  0  0
 23 30  1  0  0  0  0
 23 24  1  0  0  0  0
 24 25  2  0  0  0  0
 24 29  1  0  0  0  0
 25 26  1  0  0  0  0
 25 27  1  0  0  0  0
 26 55  1  0  0  0  0
 26 56  1  0  0  0  0
 26 57  1  0  0  0  0
 27 28  2  0  0  0  0
 28 58  1  0  0  0  0
 28 29  1  0  0  0  0
 30 59  1  0  0  0  0
 30 31  2  0  0  0  0
 31 60  1  0  0  0  0
 33 32  1  0  0  0  0
 32 61  1  0  0  0  0
 32 62  1  0  0  0  0
 33 35  1  0  0  0  0
 33 63  1  0  0  0  0
 33 34  1  0  0  0  0
 34 64  1  0  0  0  0
 35 65  1  0  0  0  0
 35 66  1  0  0  0  0
 36 67  1  0  0  0  0
 36 68  1  0  0  0  0
 36 37  1  0  0  0  0
 37 69  1  0  0  0  0
 37 70  1  0  0  0  0
M  ZZC   1 f1
M  ZZC   2 c1
M  ZZC   3 c2
M  ZZC   4 o1
M  ZZC   5 n1
M  ZZC   6 c3
M  ZZC   7 c4
M  ZZC   8 c5
M  ZZC   9 c6
M  ZZC  10 c7
M  ZZC  11 c8
M  ZZC  12 o2
M  ZZC  13 n2
M  ZZC  14 c9
M  ZZC  15 c10
M  ZZC  16 o3
M  ZZC  17 n3
M  ZZC  18 c11
M  ZZC  19 c12
M  ZZC  20 c13
M  ZZC  21 o4
M  ZZC  22 c14
M  ZZC  23 c15
M  ZZC  24 c16
M  ZZC  25 c17
M  ZZC  26 c18
M  ZZC  27 n4
M  ZZC  28 c19
M  ZZC  29 s1
M  ZZC  30 c20
M  ZZC  31 c21
M  ZZC  32 c22
M  ZZC  33 c23
M  ZZC  34 o5
M  ZZC  35 c24
M  ZZC  36 c25
M  ZZC  37 c26
M  ZZC  38 h11
M  ZZC  39 h31
M  ZZC  40 h51
M  ZZC  41 h52
M  ZZC  42 h53
M  ZZC  43 h61
M  ZZC  44 h62
M  ZZC  45 h63
M  ZZC  46 h71
M  ZZC  47 h72
M  ZZC  48 h73
M  ZZC  49 h91
M  ZZC  50 h01
M  ZZC  51 h111
M  ZZC  52 h112
M  ZZC  53 h41
M  ZZC  54 h141
M  ZZC  55 h181
M  ZZC  56 h182
M  ZZC  57 h183
M  ZZC  58 h191
M  ZZC  59 h201
M  ZZC  60 h211
M  ZZC  61 h221
M  ZZC  62 h222
M  ZZC  63 h231
M  ZZC  64 h02
M  ZZC  65 h241
M  ZZC  66 h242
M  ZZC  67 h251
M  ZZC  68 h252
M  ZZC  69 h261
M  ZZC  70 h262
M  ZZM   1 11
M  ZZI   1 90
M  ZZM   2 22
M  ZZI   2 109
M  ZZM   3 3
M  ZZI   3 121
M  ZZM   4 7
M  ZZI   4 81
M  ZZM   5 10
M  ZZI   5 211
M  ZZM   6 1
M  ZZI   6 113
M  ZZM   7 1
M  ZZI   7 110
M  ZZM   8 1
M  ZZI   8 111
M  ZZM   9 1
M  ZZI   9 111
M  ZZM  10 1
M  ZZI  10 111
M  ZZM  11 3
M  ZZI  11 121
M  ZZM  12 7
M  ZZI  12 81
M  ZZM  13 10
M  ZZI  13 192
M  ZZM  14 1
M  ZZI  14 113
M  ZZM  15 3
M  ZZI  15 121
M  ZZM  16 7
M  ZZI  16 81
M  ZZM  17 10
M  ZZI  17 211
M  ZZM  18 1
M  ZZI  18 112
M  ZZM  19 37
M  ZZI  19 124
M  ZZM  20 37
M  ZZI  20 124
M  ZZM  21 6
M  ZZI  21 62
M  ZZM  22 37
M  ZZI  22 125
M  ZZM  23 37
M  ZZI  23 124
M  ZZM  24 63
M  ZZI  24 104
M  ZZM  25 64
M  ZZI  25 105
M  ZZM  26 1
M  ZZI  26 111
M  ZZM  27 66
M  ZZI  27 222
M  ZZM  28 63
M  ZZI  28 104
M  ZZM  29 44
M  ZZI  29 248
M  ZZM  30 37
M  ZZI  30 125
M  ZZM  31 37
M  ZZI  31 125
M  ZZM  32 1
M  ZZI  32 112
M  ZZM  33 1
M  ZZI  33 113
M  ZZM  34 6
M  ZZI  34 60
M  ZZM  35 1
M  ZZI  35 112
M  ZZM  36 22
M  ZZI  36 109
M  ZZM  37 22
M  ZZI  37 109
M  ZZM  38 28
M  ZZI  38 11
M  ZZM  39 5
M  ZZI  39 1
M  ZZM  40 5
M  ZZI  40 1
M  ZZM  41 5
M  ZZI  41 1
M  ZZM  42 5
M  ZZI  42 1
M  ZZM  43 5
M  ZZI  43 1
M  ZZM  44 5
M  ZZI  44 1
M  ZZM  45 5
M  ZZI  45 1
M  ZZM  46 5
M  ZZI  46 1
M  ZZM  47 5
M  ZZI  47 1
M  ZZM  48 5
M  ZZI  48 1
M  ZZM  49 5
M  ZZI  49 1
M  ZZM  50 28
M  ZZI  50 11
M  ZZM  51 5
M  ZZI  51 1
M  ZZM  52 5
M  ZZI  52 1
M  ZZM  53 29
M  ZZI  53 27
M  ZZM  54 5
M  ZZI  54 1
M  ZZM  55 5
M  ZZI  55 1
M  ZZM  56 5
M  ZZI  56 1
M  ZZM  57 5
M  ZZI  57 1
M  ZZM  58 5
M  ZZI  58 1
M  ZZM  59 5
M  ZZI  59 1
M  ZZM  60 5
M  ZZI  60 1
M  ZZM  61 5
M  ZZI  61 1
M  ZZM  62 5
M  ZZI  62 1
M  ZZM  63 5
M  ZZI  63 1
M  ZZM  64 21
M  ZZI  64 20
M  ZZM  65 5
M  ZZI  65 1
M  ZZM  66 5
M  ZZI  66 1
M  ZZM  67 5
M  ZZI  67 1
M  ZZM  68 5
M  ZZI  68 1
M  ZZM  69 5
M  ZZI  69 1
M  ZZM  70 5
M  ZZI  70 1
M  END
> <IX>
1

> <NAME>
VHL_5F1H_7.pdb

> <Score>
-11.512183

> <Natom>
70

> <Nflex>
9

> <Hbond>
-6.323258

> <Hphob>
-6.539429

> <VwInt>
-27.419035

> <Dsolv>
22.826738

> <SolEl>
15.679939

> <Eintl>
5.695498

> <RecConf>
ND

> <projPath>
VHL_maps/

> <NAME_>
VHL_5F1H_7.pdb

$$$$
