VHL_6VS3_32.pdb
  MOLSOFT 04032206433D

 68 70  0  0  1  0  0  0  0  0999 V2000
   18.0697   -6.8100   -5.1149 C   0  0  0  0  0  0  0  0  0  0  0  0
   16.8822   -5.8937   -5.0073 C   0  0  0  0  0  0  0  0  0  0  0  0
   15.8002   -6.2167   -5.4655 O   0  0  0  0  0  0  0  0  0  0  0  0
   17.1449   -4.7242   -4.3222 N   0  0  0  0  0  0  0  0  0  0  0  0
   16.1663   -3.6520   -4.0797 C   0  0  1  0  0  0  0  0  0  0  0  0
   15.8583   -3.4820   -2.5627 C   0  0  0  0  0  0  0  0  0  0  0  0
   14.7450   -2.4608   -2.3024 C   0  0  0  0  0  0  0  0  0  0  0  0
   15.3605   -4.8274   -2.0203 C   0  0  0  0  0  0  0  0  0  0  0  0
   17.0894   -3.0355   -1.7612 C   0  0  0  0  0  0  0  0  0  0  0  0
   16.7622   -2.4245   -4.7971 C   0  0  0  0  0  0  0  0  0  0  0  0
   17.9699   -2.2196   -4.7846 O   0  0  0  0  0  0  0  0  0  0  0  0
   15.8990   -1.5716   -5.4897 N   0  0  0  0  0  0  0  0  0  0  0  0
   16.4303   -0.6107   -6.4439 C   0  0  2  0  0  0  0  0  0  0  0  0
   16.9270    0.6679   -5.7659 C   0  0  0  0  0  0  0  0  0  0  0  0
   16.5418    1.0241   -4.6604 O   0  0  0  0  0  0  0  0  0  0  0  0
   17.8203    1.3848   -6.5458 N   0  0  0  0  0  0  0  0  0  0  0  0
   18.4297    2.6342   -6.1094 C   0  0  1  0  0  0  0  0  0  0  0  0
   19.8076    2.7977   -6.7562 C   0  0  0  0  0  0  0  0  0  0  0  0
   17.5028    3.8161   -6.3492 C   0  0  0  0  0  0  0  0  0  0  0  0
   16.5419    4.1453   -5.3944 C   0  0  0  0  0  0  0  0  0  0  0  0
   15.6602    5.1949   -5.5834 C   0  0  0  0  0  0  0  0  0  0  0  0
   15.7119    5.9601   -6.7408 C   0  0  0  0  0  0  0  0  0  0  0  0
   14.7792    7.0543   -6.9615 C   0  0  0  0  0  0  0  0  0  0  0  0
   13.8308    7.2314   -7.9574 C   0  0  0  0  0  0  0  0  0  0  0  0
   13.5088    6.2803   -9.0427 C   0  0  0  0  0  0  0  0  0  0  0  0
   13.1358    8.4220   -7.8990 N   0  0  0  0  0  0  0  0  0  0  0  0
   13.5479    9.1204   -6.8647 C   0  0  0  0  0  0  0  0  0  0  0  0
   14.7621    8.4073   -5.9012 S   0  0  0  0  0  0  0  0  0  0  0  0
   16.6679    5.6465   -7.6983 C   0  0  0  0  0  0  0  0  0  0  0  0
   17.5479    4.5952   -7.5058 C   0  0  0  0  0  0  0  0  0  0  0  0
   15.2720   -0.3499   -7.3940 C   0  0  0  0  0  0  0  0  0  0  0  0
   14.0403   -0.5025   -6.5177 C   0  0  1  0  0  0  0  0  0  0  0  0
   12.9374   -0.9800   -7.2860 O   0  0  0  0  0  0  0  0  0  0  0  0
   14.4484   -1.5260   -5.4677 C   0  0  0  0  0  0  0  0  0  0  0  0
   18.9971   -6.2397   -5.2244 H   0  0  0  0  0  0  0  0  0  0  0  0
   17.9543   -7.4532   -5.9923 H   0  0  0  0  0  0  0  0  0  0  0  0
   18.1205   -7.4324   -4.2184 H   0  0  0  0  0  0  0  0  0  0  0  0
   18.1053   -4.5493   -4.0471 H   0  0  0  0  0  0  0  0  0  0  0  0
   15.2424   -3.9398   -4.5791 H   0  0  0  0  0  0  0  0  0  0  0  0
   15.0554   -1.4478   -2.5725 H   0  0  0  0  0  0  0  0  0  0  0  0
   14.4727   -2.4280   -1.2423 H   0  0  0  0  0  0  0  0  0  0  0  0
   13.8346   -2.7130   -2.8550 H   0  0  0  0  0  0  0  0  0  0  0  0
   15.0766   -4.7464   -0.9687 H   0  0  0  0  0  0  0  0  0  0  0  0
   16.1236   -5.6043   -2.0965 H   0  0  0  0  0  0  0  0  0  0  0  0
   14.4819   -5.1815   -2.5690 H   0  0  0  0  0  0  0  0  0  0  0  0
   16.8686   -2.9759   -0.6906 H   0  0  0  0  0  0  0  0  0  0  0  0
   17.4423   -2.0479   -2.0741 H   0  0  0  0  0  0  0  0  0  0  0  0
   17.9192   -3.7302   -1.8756 H   0  0  0  0  0  0  0  0  0  0  0  0
   17.2728   -1.0567   -6.9772 H   0  0  0  0  0  0  0  0  0  0  0  0
   18.1110    0.9939   -7.4369 H   0  0  0  0  0  0  0  0  0  0  0  0
   18.5970    2.5520   -5.0290 H   0  0  0  0  0  0  0  0  0  0  0  0
   20.2936    3.7144   -6.4160 H   0  0  0  0  0  0  0  0  0  0  0  0
   19.7342    2.8412   -7.8474 H   0  0  0  0  0  0  0  0  0  0  0  0
   20.4894    1.9841   -6.4968 H   0  0  0  0  0  0  0  0  0  0  0  0
   16.4671    3.5710   -4.4756 H   0  0  0  0  0  0  0  0  0  0  0  0
   14.9182    5.4029   -4.8177 H   0  0  0  0  0  0  0  0  0  0  0  0
   14.2923    6.2848   -9.8042 H   0  0  0  0  0  0  0  0  0  0  0  0
   12.5663    6.5457   -9.5234 H   0  0  0  0  0  0  0  0  0  0  0  0
   13.4065    5.2611   -8.6584 H   0  0  0  0  0  0  0  0  0  0  0  0
   13.1476   10.0943   -6.6255 H   0  0  0  0  0  0  0  0  0  0  0  0
   16.7405    6.2327   -8.6108 H   0  0  0  0  0  0  0  0  0  0  0  0
   18.2786    4.3982   -8.2816 H   0  0  0  0  0  0  0  0  0  0  0  0
   15.3107    0.6322   -7.8769 H   0  0  0  0  0  0  0  0  0  0  0  0
   15.2588   -1.0997   -8.1937 H   0  0  0  0  0  0  0  0  0  0  0  0
   13.7732    0.4573   -6.0596 H   0  0  0  0  0  0  0  0  0  0  0  0
   12.1174   -0.7071   -6.8376 H   0  0  0  0  0  0  0  0  0  0  0  0
   14.0282   -2.5174   -5.6343 H   0  0  0  0  0  0  0  0  0  0  0  0
   14.1131   -1.1840   -4.4892 H   0  0  0  0  0  0  0  0  0  0  0  0
  1 35  1  0  0  0  0
  1 36  1  0  0  0  0
  1 37  1  0  0  0  0
  1  2  1  0  0  0  0
  2  3  2  0  0  0  0
  2  4  1  0  0  0  0
  4 38  1  0  0  0  0
  5  4  1  0  0  0  0
  5 39  1  0  0  0  0
  5  6  1  0  0  0  0
  5 10  1  0  0  0  0
  6  7  1  0  0  0  0
  6  8  1  0  0  0  0
  6  9  1  0  0  0  0
  7 40  1  0  0  0  0
  7 41  1  0  0  0  0
  7 42  1  0  0  0  0
  8 43  1  0  0  0  0
  8 44  1  0  0  0  0
  8 45  1  0  0  0  0
  9 46  1  0  0  0  0
  9 47  1  0  0  0  0
  9 48  1  0  0  0  0
 10 11  2  0  0  0  0
 10 12  1  0  0  0  0
 12 34  1  0  0  0  0
 13 12  1  0  0  0  0
 13 31  1  0  0  0  0
 13 49  1  0  0  0  0
 13 14  1  0  0  0  0
 14 15  2  0  0  0  0
 14 16  1  0  0  0  0
 16 50  1  0  0  0  0
 17 16  1  0  0  0  0
 17 51  1  0  0  0  0
 17 18  1  0  0  0  0
 17 19  1  0  0  0  0
 18 52  1  0  0  0  0
 18 53  1  0  0  0  0
 18 54  1  0  0  0  0
 19 20  1  0  0  0  0
 19 30  2  0  0  0  0
 20 55  1  0  0  0  0
 20 21  2  0  0  0  0
 21 56  1  0  0  0  0
 21 22  1  0  0  0  0
 22 29  2  0  0  0  0
 22 23  1  0  0  0  0
 23 24  2  0  0  0  0
 23 28  1  0  0  0  0
 24 25  1  0  0  0  0
 24 26  1  0  0  0  0
 25 57  1  0  0  0  0
 25 58  1  0  0  0  0
 25 59  1  0  0  0  0
 26 27  2  0  0  0  0
 27 60  1  0  0  0  0
 27 28  1  0  0  0  0
 29 61  1  0  0  0  0
 29 30  1  0  0  0  0
 30 62  1  0  0  0  0
 32 31  1  0  0  0  0
 31 63  1  0  0  0  0
 31 64  1  0  0  0  0
 32 34  1  0  0  0  0
 32 65  1  0  0  0  0
 32 33  1  0  0  0  0
 33 66  1  0  0  0  0
 34 67  1  0  0  0  0
 34 68  1  0  0  0  0
M  ZZC   1 c1
M  ZZC   2 c2
M  ZZC   3 o1
M  ZZC   4 n1
M  ZZC   5 c3
M  ZZC   6 c4
M  ZZC   7 c5
M  ZZC   8 c6
M  ZZC   9 c7
M  ZZC  10 c8
M  ZZC  11 o2
M  ZZC  12 n2
M  ZZC  13 c9
M  ZZC  14 c10
M  ZZC  15 o3
M  ZZC  16 n3
M  ZZC  17 c11
M  ZZC  18 c12
M  ZZC  19 c13
M  ZZC  20 c14
M  ZZC  21 c15
M  ZZC  22 c16
M  ZZC  23 c17
M  ZZC  24 c18
M  ZZC  25 c19
M  ZZC  26 n4
M  ZZC  27 c20
M  ZZC  28 s1
M  ZZC  29 c21
M  ZZC  30 c22
M  ZZC  31 c23
M  ZZC  32 c24
M  ZZC  33 o4
M  ZZC  34 c25
M  ZZC  35 h11
M  ZZC  36 h12
M  ZZC  37 h13
M  ZZC  38 h01
M  ZZC  39 h31
M  ZZC  40 h51
M  ZZC  41 h52
M  ZZC  42 h53
M  ZZC  43 h61
M  ZZC  44 h62
M  ZZC  45 h63
M  ZZC  46 h71
M  ZZC  47 h72
M  ZZC  48 h73
M  ZZC  49 h91
M  ZZC  50 h02
M  ZZC  51 h111
M  ZZC  52 h121
M  ZZC  53 h122
M  ZZC  54 h123
M  ZZC  55 h141
M  ZZC  56 h151
M  ZZC  57 h191
M  ZZC  58 h192
M  ZZC  59 h193
M  ZZC  60 h201
M  ZZC  61 h211
M  ZZC  62 h221
M  ZZC  63 h231
M  ZZC  64 h232
M  ZZC  65 h241
M  ZZC  66 h41
M  ZZC  67 h251
M  ZZC  68 h252
M  ZZM   1 1
M  ZZI   1 111
M  ZZM   2 3
M  ZZI   2 121
M  ZZM   3 7
M  ZZI   3 81
M  ZZM   4 10
M  ZZI   4 211
M  ZZM   5 1
M  ZZI   5 113
M  ZZM   6 1
M  ZZI   6 110
M  ZZM   7 1
M  ZZI   7 111
M  ZZM   8 1
M  ZZI   8 111
M  ZZM   9 1
M  ZZI   9 111
M  ZZM  10 3
M  ZZI  10 121
M  ZZM  11 7
M  ZZI  11 81
M  ZZM  12 10
M  ZZI  12 192
M  ZZM  13 1
M  ZZI  13 113
M  ZZM  14 3
M  ZZI  14 121
M  ZZM  15 7
M  ZZI  15 81
M  ZZM  16 10
M  ZZI  16 211
M  ZZM  17 1
M  ZZI  17 113
M  ZZM  18 1
M  ZZI  18 111
M  ZZM  19 37
M  ZZI  19 124
M  ZZM  20 37
M  ZZI  20 125
M  ZZM  21 37
M  ZZI  21 125
M  ZZM  22 37
M  ZZI  22 124
M  ZZM  23 63
M  ZZI  23 104
M  ZZM  24 64
M  ZZI  24 105
M  ZZM  25 1
M  ZZI  25 111
M  ZZM  26 66
M  ZZI  26 222
M  ZZM  27 63
M  ZZI  27 104
M  ZZM  28 44
M  ZZI  28 248
M  ZZM  29 37
M  ZZI  29 125
M  ZZM  30 37
M  ZZI  30 125
M  ZZM  31 1
M  ZZI  31 112
M  ZZM  32 1
M  ZZI  32 113
M  ZZM  33 6
M  ZZI  33 60
M  ZZM  34 1
M  ZZI  34 112
M  ZZM  35 5
M  ZZI  35 1
M  ZZM  36 5
M  ZZI  36 1
M  ZZM  37 5
M  ZZI  37 1
M  ZZM  38 28
M  ZZI  38 11
M  ZZM  39 5
M  ZZI  39 1
M  ZZM  40 5
M  ZZI  40 1
M  ZZM  41 5
M  ZZI  41 1
M  ZZM  42 5
M  ZZI  42 1
M  ZZM  43 5
M  ZZI  43 1
M  ZZM  44 5
M  ZZI  44 1
M  ZZM  45 5
M  ZZI  45 1
M  ZZM  46 5
M  ZZI  46 1
M  ZZM  47 5
M  ZZI  47 1
M  ZZM  48 5
M  ZZI  48 1
M  ZZM  49 5
M  ZZI  49 1
M  ZZM  50 28
M  ZZI  50 11
M  ZZM  51 5
M  ZZI  51 1
M  ZZM  52 5
M  ZZI  52 1
M  ZZM  53 5
M  ZZI  53 1
M  ZZM  54 5
M  ZZI  54 1
M  ZZM  55 5
M  ZZI  55 1
M  ZZM  56 5
M  ZZI  56 1
M  ZZM  57 5
M  ZZI  57 1
M  ZZM  58 5
M  ZZI  58 1
M  ZZM  59 5
M  ZZI  59 1
M  ZZM  60 5
M  ZZI  60 1
M  ZZM  61 5
M  ZZI  61 1
M  ZZM  62 5
M  ZZI  62 1
M  ZZM  63 5
M  ZZI  63 1
M  ZZM  64 5
M  ZZI  64 1
M  ZZM  65 5
M  ZZI  65 1
M  ZZM  66 21
M  ZZI  66 20
M  ZZM  67 5
M  ZZI  67 1
M  ZZM  68 5
M  ZZI  68 1
M  END
> <IX>
1

> <NAME>
VHL_6VS3_32.pdb

> <Score>
-3.466111

> <Natom>
68

> <Nflex>
8

> <Hbond>
-5.014614

> <Hphob>
-6.772137

> <VwInt>
-28.161112

> <Dsolv>
22.770234

> <SolEl>
23.07772

> <Eintl>
8.017229

> <RecConf>
ND

> <projPath>
VHL_maps/

> <NAME_>
VHL_6VS3_32.pdb

$$$$
