VHL_5T8E_35.pdb
  MOLSOFT 04032206423D

 65 67  0  0  1  0  0  0  0  0999 V2000
   18.1238   -6.6963   -5.1398 C   0  0  0  0  0  0  0  0  0  0  0  0
   16.9119   -5.8178   -4.9877 C   0  0  0  0  0  0  0  0  0  0  0  0
   15.8256   -6.1740   -5.4106 O   0  0  0  0  0  0  0  0  0  0  0  0
   17.1589   -4.6388   -4.3123 N   0  0  0  0  0  0  0  0  0  0  0  0
   16.1538   -3.5971   -4.0443 C   0  0  1  0  0  0  0  0  0  0  0  0
   15.8834   -3.4316   -2.5195 C   0  0  0  0  0  0  0  0  0  0  0  0
   15.4055   -4.7817   -1.9707 C   0  0  0  0  0  0  0  0  0  0  0  0
   17.1333   -2.9821   -1.7498 C   0  0  0  0  0  0  0  0  0  0  0  0
   14.7730   -2.4172   -2.2224 C   0  0  0  0  0  0  0  0  0  0  0  0
   16.6774   -2.3502   -4.7876 C   0  0  0  0  0  0  0  0  0  0  0  0
   17.8762   -2.0983   -4.8199 O   0  0  0  0  0  0  0  0  0  0  0  0
   15.7497   -1.5489   -5.4597 N   0  0  0  0  0  0  0  0  0  0  0  0
   16.1796   -0.6132   -6.4887 C   0  0  2  0  0  0  0  0  0  0  0  0
   16.5846    0.7515   -5.9220 C   0  0  0  0  0  0  0  0  0  0  0  0
   16.0347    1.2561   -4.9523 O   0  0  0  0  0  0  0  0  0  0  0  0
   17.5721    1.3818   -6.6591 N   0  0  0  0  0  0  0  0  0  0  0  0
   18.0245    2.7286   -6.3445 C   0  0  0  0  0  0  0  0  0  0  0  0
   19.4817    3.0197   -6.6317 C   0  0  0  0  0  0  0  0  0  0  0  0
   19.9914    4.2806   -6.3300 C   0  0  0  0  0  0  0  0  0  0  0  0
   21.3285    4.5910   -6.5299 C   0  0  0  0  0  0  0  0  0  0  0  0
   22.2053    3.6474   -7.0519 C   0  0  0  0  0  0  0  0  0  0  0  0
   23.6289    3.9203   -7.2150 C   0  0  0  0  0  0  0  0  0  0  0  0
   24.4449    3.8817   -8.3398 C   0  0  0  0  0  0  0  0  0  0  0  0
   24.0371    3.6125   -9.7363 C   0  0  0  0  0  0  0  0  0  0  0  0
   25.7835    4.1182   -8.1012 N   0  0  0  0  0  0  0  0  0  0  0  0
   25.9721    4.3552   -6.8233 C   0  0  0  0  0  0  0  0  0  0  0  0
   24.5801    4.3177   -5.8359 S   0  0  0  0  0  0  0  0  0  0  0  0
   21.6922    2.4026   -7.3834 C   0  0  0  0  0  0  0  0  0  0  0  0
   20.3635    2.0885   -7.1708 C   0  0  0  0  0  0  0  0  0  0  0  0
   14.9622   -0.4918   -7.3933 C   0  0  0  0  0  0  0  0  0  0  0  0
   13.7850   -0.6357   -6.4389 C   0  0  1  0  0  0  0  0  0  0  0  0
   12.6525   -1.2273   -7.0714 O   0  0  0  0  0  0  0  0  0  0  0  0
   14.3013   -1.5600   -5.3497 C   0  0  0  0  0  0  0  0  0  0  0  0
   19.0382   -6.1002   -5.2139 H   0  0  0  0  0  0  0  0  0  0  0  0
   18.0277   -7.2938   -6.0513 H   0  0  0  0  0  0  0  0  0  0  0  0
   18.1889   -7.3645   -4.2777 H   0  0  0  0  0  0  0  0  0  0  0  0
   18.1196   -4.4361   -4.0600 H   0  0  0  0  0  0  0  0  0  0  0  0
   15.2278   -3.9250   -4.5152 H   0  0  0  0  0  0  0  0  0  0  0  0
   15.1350   -4.7024   -0.9154 H   0  0  0  0  0  0  0  0  0  0  0  0
   16.1743   -5.5514   -2.0605 H   0  0  0  0  0  0  0  0  0  0  0  0
   14.5223   -5.1438   -2.5067 H   0  0  0  0  0  0  0  0  0  0  0  0
   16.9392   -2.9199   -0.6741 H   0  0  0  0  0  0  0  0  0  0  0  0
   17.4781   -1.9956   -2.0748 H   0  0  0  0  0  0  0  0  0  0  0  0
   17.9599   -3.6771   -1.8824 H   0  0  0  0  0  0  0  0  0  0  0  0
   15.0648   -1.4032   -2.5092 H   0  0  0  0  0  0  0  0  0  0  0  0
   14.5404   -2.3817   -1.1529 H   0  0  0  0  0  0  0  0  0  0  0  0
   13.8442   -2.6800   -2.7377 H   0  0  0  0  0  0  0  0  0  0  0  0
   17.0291   -1.0357   -7.0341 H   0  0  0  0  0  0  0  0  0  0  0  0
   17.9554    0.9071   -7.4700 H   0  0  0  0  0  0  0  0  0  0  0  0
   17.4008    3.4059   -6.9379 H   0  0  0  0  0  0  0  0  0  0  0  0
   17.8226    2.9276   -5.2866 H   0  0  0  0  0  0  0  0  0  0  0  0
   19.3391    5.0413   -5.9108 H   0  0  0  0  0  0  0  0  0  0  0  0
   21.6832    5.5821   -6.2628 H   0  0  0  0  0  0  0  0  0  0  0  0
   23.9145    2.5397   -9.8987 H   0  0  0  0  0  0  0  0  0  0  0  0
   24.7924    3.9713  -10.4413 H   0  0  0  0  0  0  0  0  0  0  0  0
   23.0965    4.1155   -9.9756 H   0  0  0  0  0  0  0  0  0  0  0  0
   26.9505    4.5625   -6.4134 H   0  0  0  0  0  0  0  0  0  0  0  0
   22.3380    1.6367   -7.7939 H   0  0  0  0  0  0  0  0  0  0  0  0
   20.0403    1.0853   -7.4166 H   0  0  0  0  0  0  0  0  0  0  0  0
   14.9222    0.4478   -7.9544 H   0  0  0  0  0  0  0  0  0  0  0  0
   14.9548   -1.3065   -8.1260 H   0  0  0  0  0  0  0  0  0  0  0  0
   13.4877    0.3327   -6.0204 H   0  0  0  0  0  0  0  0  0  0  0  0
   12.3495   -0.6286   -7.7773 H   0  0  0  0  0  0  0  0  0  0  0  0
   13.9066   -2.5748   -5.4163 H   0  0  0  0  0  0  0  0  0  0  0  0
   14.0157   -1.1540   -4.3795 H   0  0  0  0  0  0  0  0  0  0  0  0
  1 34  1  0  0  0  0
  1 35  1  0  0  0  0
  1 36  1  0  0  0  0
  1  2  1  0  0  0  0
  2  3  2  0  0  0  0
  2  4  1  0  0  0  0
  4 37  1  0  0  0  0
  5  4  1  0  0  0  0
  5 38  1  0  0  0  0
  5  6  1  0  0  0  0
  5 10  1  0  0  0  0
  6  7  1  0  0  0  0
  6  8  1  0  0  0  0
  6  9  1  0  0  0  0
  7 39  1  0  0  0  0
  7 40  1  0  0  0  0
  7 41  1  0  0  0  0
  8 42  1  0  0  0  0
  8 43  1  0  0  0  0
  8 44  1  0  0  0  0
  9 45  1  0  0  0  0
  9 46  1  0  0  0  0
  9 47  1  0  0  0  0
 10 11  2  0  0  0  0
 10 12  1  0  0  0  0
 12 33  1  0  0  0  0
 13 12  1  0  0  0  0
 13 30  1  0  0  0  0
 13 48  1  0  0  0  0
 13 14  1  0  0  0  0
 14 15  2  0  0  0  0
 14 16  1  0  0  0  0
 16 49  1  0  0  0  0
 16 17  1  0  0  0  0
 17 50  1  0  0  0  0
 17 51  1  0  0  0  0
 17 18  1  0  0  0  0
 18 19  1  0  0  0  0
 18 29  2  0  0  0  0
 19 52  1  0  0  0  0
 19 20  2  0  0  0  0
 20 53  1  0  0  0  0
 20 21  1  0  0  0  0
 21 28  2  0  0  0  0
 21 22  1  0  0  0  0
 22 23  2  0  0  0  0
 22 27  1  0  0  0  0
 23 24  1  0  0  0  0
 23 25  1  0  0  0  0
 24 54  1  0  0  0  0
 24 55  1  0  0  0  0
 24 56  1  0  0  0  0
 25 26  2  0  0  0  0
 26 57  1  0  0  0  0
 26 27  1  0  0  0  0
 28 58  1  0  0  0  0
 28 29  1  0  0  0  0
 29 59  1  0  0  0  0
 31 30  1  0  0  0  0
 30 60  1  0  0  0  0
 30 61  1  0  0  0  0
 31 33  1  0  0  0  0
 31 62  1  0  0  0  0
 31 32  1  0  0  0  0
 32 63  1  0  0  0  0
 33 64  1  0  0  0  0
 33 65  1  0  0  0  0
M  ZZC   1 c1
M  ZZC   2 c2
M  ZZC   3 o1
M  ZZC   4 n1
M  ZZC   5 c3
M  ZZC   6 c4
M  ZZC   7 c5
M  ZZC   8 c6
M  ZZC   9 c7
M  ZZC  10 c8
M  ZZC  11 o2
M  ZZC  12 n2
M  ZZC  13 c9
M  ZZC  14 c10
M  ZZC  15 o3
M  ZZC  16 n3
M  ZZC  17 c11
M  ZZC  18 c12
M  ZZC  19 c13
M  ZZC  20 c14
M  ZZC  21 c15
M  ZZC  22 c16
M  ZZC  23 c17
M  ZZC  24 c18
M  ZZC  25 n4
M  ZZC  26 c19
M  ZZC  27 s1
M  ZZC  28 c20
M  ZZC  29 c21
M  ZZC  30 c22
M  ZZC  31 c23
M  ZZC  32 o4
M  ZZC  33 c24
M  ZZC  34 h11
M  ZZC  35 h12
M  ZZC  36 h13
M  ZZC  37 h01
M  ZZC  38 h31
M  ZZC  39 h51
M  ZZC  40 h52
M  ZZC  41 h53
M  ZZC  42 h61
M  ZZC  43 h62
M  ZZC  44 h63
M  ZZC  45 h71
M  ZZC  46 h72
M  ZZC  47 h73
M  ZZC  48 h91
M  ZZC  49 h02
M  ZZC  50 h111
M  ZZC  51 h112
M  ZZC  52 h131
M  ZZC  53 h141
M  ZZC  54 h181
M  ZZC  55 h182
M  ZZC  56 h183
M  ZZC  57 h191
M  ZZC  58 h201
M  ZZC  59 h211
M  ZZC  60 h221
M  ZZC  61 h222
M  ZZC  62 h231
M  ZZC  63 h41
M  ZZC  64 h241
M  ZZC  65 h242
M  ZZM   1 1
M  ZZI   1 111
M  ZZM   2 3
M  ZZI   2 121
M  ZZM   3 7
M  ZZI   3 81
M  ZZM   4 10
M  ZZI   4 211
M  ZZM   5 1
M  ZZI   5 113
M  ZZM   6 1
M  ZZI   6 110
M  ZZM   7 1
M  ZZI   7 111
M  ZZM   8 1
M  ZZI   8 111
M  ZZM   9 1
M  ZZI   9 111
M  ZZM  10 3
M  ZZI  10 121
M  ZZM  11 7
M  ZZI  11 81
M  ZZM  12 10
M  ZZI  12 192
M  ZZM  13 1
M  ZZI  13 113
M  ZZM  14 3
M  ZZI  14 121
M  ZZM  15 7
M  ZZI  15 81
M  ZZM  16 10
M  ZZI  16 211
M  ZZM  17 1
M  ZZI  17 112
M  ZZM  18 37
M  ZZI  18 124
M  ZZM  19 37
M  ZZI  19 125
M  ZZM  20 37
M  ZZI  20 125
M  ZZM  21 37
M  ZZI  21 124
M  ZZM  22 63
M  ZZI  22 104
M  ZZM  23 64
M  ZZI  23 105
M  ZZM  24 1
M  ZZI  24 111
M  ZZM  25 66
M  ZZI  25 222
M  ZZM  26 63
M  ZZI  26 104
M  ZZM  27 44
M  ZZI  27 248
M  ZZM  28 37
M  ZZI  28 125
M  ZZM  29 37
M  ZZI  29 125
M  ZZM  30 1
M  ZZI  30 112
M  ZZM  31 1
M  ZZI  31 113
M  ZZM  32 6
M  ZZI  32 60
M  ZZM  33 1
M  ZZI  33 112
M  ZZM  34 5
M  ZZI  34 1
M  ZZM  35 5
M  ZZI  35 1
M  ZZM  36 5
M  ZZI  36 1
M  ZZM  37 28
M  ZZI  37 11
M  ZZM  38 5
M  ZZI  38 1
M  ZZM  39 5
M  ZZI  39 1
M  ZZM  40 5
M  ZZI  40 1
M  ZZM  41 5
M  ZZI  41 1
M  ZZM  42 5
M  ZZI  42 1
M  ZZM  43 5
M  ZZI  43 1
M  ZZM  44 5
M  ZZI  44 1
M  ZZM  45 5
M  ZZI  45 1
M  ZZM  46 5
M  ZZI  46 1
M  ZZM  47 5
M  ZZI  47 1
M  ZZM  48 5
M  ZZI  48 1
M  ZZM  49 28
M  ZZI  49 11
M  ZZM  50 5
M  ZZI  50 1
M  ZZM  51 5
M  ZZI  51 1
M  ZZM  52 5
M  ZZI  52 1
M  ZZM  53 5
M  ZZI  53 1
M  ZZM  54 5
M  ZZI  54 1
M  ZZM  55 5
M  ZZI  55 1
M  ZZM  56 5
M  ZZI  56 1
M  ZZM  57 5
M  ZZI  57 1
M  ZZM  58 5
M  ZZI  58 1
M  ZZM  59 5
M  ZZI  59 1
M  ZZM  60 5
M  ZZI  60 1
M  ZZM  61 5
M  ZZI  61 1
M  ZZM  62 5
M  ZZI  62 1
M  ZZM  63 21
M  ZZI  63 20
M  ZZM  64 5
M  ZZI  64 1
M  ZZM  65 5
M  ZZI  65 1
M  END
> <IX>
1

> <NAME>
VHL_5T8E_35.pdb

> <Score>
-11.529216

> <Natom>
65

> <Nflex>
8

> <Hbond>
-4.963363

> <Hphob>
-6.380195

> <VwInt>
-28.160263

> <Dsolv>
16.841276

> <SolEl>
16.503887

> <Eintl>
8.565941

> <RecConf>
ND

> <projPath>
VHL_maps/

> <NAME_>
VHL_5T8E_35.pdb

$$$$
