VHL_5EU1_20.pdb
  MOLSOFT 04032206413D

 70 73  0  0  1  0  0  0  0  0999 V2000
   18.7429   -5.3893   -5.9384 F   0  0  0  0  0  0  0  0  0  0  0  0
   17.7010   -5.9687   -5.2199 C   0  0  0  0  0  0  0  0  0  0  0  0
   16.8216   -5.0249   -4.4638 C   0  0  0  0  0  0  0  0  0  0  0  0
   15.7524   -5.3867   -3.9945 O   0  0  0  0  0  0  0  0  0  0  0  0
   17.3029   -3.7355   -4.3685 N   0  0  0  0  0  0  0  0  0  0  0  0
   16.4626   -2.6125   -3.9326 C   0  0  1  0  0  0  0  0  0  0  0  0
   16.6682   -2.1726   -2.4501 C   0  0  0  0  0  0  0  0  0  0  0  0
   18.0699   -1.6035   -2.1935 C   0  0  0  0  0  0  0  0  0  0  0  0
   15.6406   -1.0957   -2.0688 C   0  0  0  0  0  0  0  0  0  0  0  0
   16.4455   -3.3659   -1.5067 C   0  0  0  0  0  0  0  0  0  0  0  0
   16.7440   -1.5082   -4.9727 C   0  0  0  0  0  0  0  0  0  0  0  0
   17.8941   -1.1942   -5.2568 O   0  0  0  0  0  0  0  0  0  0  0  0
   15.6416   -0.9383   -5.6121 N   0  0  0  0  0  0  0  0  0  0  0  0
   15.8045   -0.0974   -6.7920 C   0  0  2  0  0  0  0  0  0  0  0  0
   16.1169    1.3593   -6.4286 C   0  0  0  0  0  0  0  0  0  0  0  0
   15.3125    2.0972   -5.8758 O   0  0  0  0  0  0  0  0  0  0  0  0
   17.4038    1.7396   -6.7558 N   0  0  0  0  0  0  0  0  0  0  0  0
   17.9321    3.0607   -6.4602 C   0  0  0  0  0  0  0  0  0  0  0  0
   19.3320    3.2936   -6.9864 C   0  0  0  0  0  0  0  0  0  0  0  0
   20.2803    2.2802   -7.0389 C   0  0  0  0  0  0  0  0  0  0  0  0
   19.9394    1.0190   -6.6076 O   0  0  0  0  0  0  0  0  0  0  0  0
   21.5651    2.4836   -7.4974 C   0  0  0  0  0  0  0  0  0  0  0  0
   21.9693    3.7450   -7.8955 C   0  0  0  0  0  0  0  0  0  0  0  0
   23.3441    3.9460   -8.3212 C   0  0  0  0  0  0  0  0  0  0  0  0
   24.4768    4.2482   -7.5791 C   0  0  0  0  0  0  0  0  0  0  0  0
   24.5398    4.5067   -6.1225 C   0  0  0  0  0  0  0  0  0  0  0  0
   25.6536    4.2839   -8.2997 N   0  0  0  0  0  0  0  0  0  0  0  0
   25.4047    4.0284   -9.5646 C   0  0  0  0  0  0  0  0  0  0  0  0
   23.7724    3.7388   -9.9707 S   0  0  0  0  0  0  0  0  0  0  0  0
   21.0445    4.7833   -7.8441 C   0  0  0  0  0  0  0  0  0  0  0  0
   19.7457    4.5601   -7.3983 C   0  0  0  0  0  0  0  0  0  0  0  0
   14.4695   -0.2242   -7.5067 C   0  0  0  0  0  0  0  0  0  0  0  0
   13.4569   -0.4434   -6.3941 C   0  0  1  0  0  0  0  0  0  0  0  0
   12.3360   -1.2032   -6.8488 O   0  0  0  0  0  0  0  0  0  0  0  0
   14.2408   -1.2395   -5.3668 C   0  0  0  0  0  0  0  0  0  0  0  0
   17.1206   -7.2067   -5.8656 C   0  0  0  0  0  0  0  0  0  0  0  0
   18.0075   -7.3351   -4.6726 C   0  0  0  0  0  0  0  0  0  0  0  0
   18.2282   -3.5409   -4.7447 H   0  0  0  0  0  0  0  0  0  0  0  0
   15.4302   -2.9533   -4.0344 H   0  0  0  0  0  0  0  0  0  0  0  0
   18.2247   -1.3833   -1.1325 H   0  0  0  0  0  0  0  0  0  0  0  0
   18.2424   -0.6706   -2.7381 H   0  0  0  0  0  0  0  0  0  0  0  0
   18.8430   -2.3114   -2.4896 H   0  0  0  0  0  0  0  0  0  0  0  0
   15.7450   -0.2043   -2.6961 H   0  0  0  0  0  0  0  0  0  0  0  0
   15.7673   -0.7714   -1.0306 H   0  0  0  0  0  0  0  0  0  0  0  0
   14.6125   -1.4510   -2.1883 H   0  0  0  0  0  0  0  0  0  0  0  0
   16.5140   -3.0655   -0.4562 H   0  0  0  0  0  0  0  0  0  0  0  0
   17.1902   -4.1495   -1.6600 H   0  0  0  0  0  0  0  0  0  0  0  0
   15.4564   -3.8133   -1.6509 H   0  0  0  0  0  0  0  0  0  0  0  0
   16.6091   -0.4962   -7.4212 H   0  0  0  0  0  0  0  0  0  0  0  0
   18.0577    1.0305   -7.0825 H   0  0  0  0  0  0  0  0  0  0  0  0
   17.2357    3.7900   -6.8888 H   0  0  0  0  0  0  0  0  0  0  0  0
   17.9212    3.1911   -5.3727 H   0  0  0  0  0  0  0  0  0  0  0  0
   20.3791    0.3909   -7.2084 H   0  0  0  0  0  0  0  0  0  0  0  0
   22.2590    1.6522   -7.5318 H   0  0  0  0  0  0  0  0  0  0  0  0
   23.9563    5.3941   -5.8610 H   0  0  0  0  0  0  0  0  0  0  0  0
   25.5705    4.6717   -5.7954 H   0  0  0  0  0  0  0  0  0  0  0  0
   24.1456    3.6575   -5.5586 H   0  0  0  0  0  0  0  0  0  0  0  0
   26.1832    4.0013  -10.3136 H   0  0  0  0  0  0  0  0  0  0  0  0
   21.3335    5.7841   -8.1515 H   0  0  0  0  0  0  0  0  0  0  0  0
   19.0515    5.3952   -7.3698 H   0  0  0  0  0  0  0  0  0  0  0  0
   14.2178    0.6369   -8.1350 H   0  0  0  0  0  0  0  0  0  0  0  0
   14.4993   -1.1070   -8.1524 H   0  0  0  0  0  0  0  0  0  0  0  0
   13.1029    0.5043   -5.9737 H   0  0  0  0  0  0  0  0  0  0  0  0
   11.8724   -0.6882   -7.5345 H   0  0  0  0  0  0  0  0  0  0  0  0
   14.0705   -2.3150   -5.4745 H   0  0  0  0  0  0  0  0  0  0  0  0
   13.9669   -0.9563   -4.3478 H   0  0  0  0  0  0  0  0  0  0  0  0
   16.0713   -7.4254   -5.7343 H   0  0  0  0  0  0  0  0  0  0  0  0
   17.5276   -7.5462   -6.8067 H   0  0  0  0  0  0  0  0  0  0  0  0
   18.9988   -7.7311   -4.8456 H   0  0  0  0  0  0  0  0  0  0  0  0
   17.5485   -7.6355   -3.7413 H   0  0  0  0  0  0  0  0  0  0  0  0
  2  1  1  0  0  0  0
  2 36  1  0  0  0  0
  2  3  1  0  0  0  0
  2 37  1  0  0  0  0
  3  4  2  0  0  0  0
  3  5  1  0  0  0  0
  5 38  1  0  0  0  0
  6  5  1  0  0  0  0
  6 39  1  0  0  0  0
  6  7  1  0  0  0  0
  6 11  1  0  0  0  0
  7  8  1  0  0  0  0
  7  9  1  0  0  0  0
  7 10  1  0  0  0  0
  8 40  1  0  0  0  0
  8 41  1  0  0  0  0
  8 42  1  0  0  0  0
  9 43  1  0  0  0  0
  9 44  1  0  0  0  0
  9 45  1  0  0  0  0
 10 46  1  0  0  0  0
 10 47  1  0  0  0  0
 10 48  1  0  0  0  0
 11 12  2  0  0  0  0
 11 13  1  0  0  0  0
 13 35  1  0  0  0  0
 14 13  1  0  0  0  0
 14 32  1  0  0  0  0
 14 49  1  0  0  0  0
 14 15  1  0  0  0  0
 15 16  2  0  0  0  0
 15 17  1  0  0  0  0
 17 50  1  0  0  0  0
 17 18  1  0  0  0  0
 18 51  1  0  0  0  0
 18 52  1  0  0  0  0
 18 19  1  0  0  0  0
 19 20  2  0  0  0  0
 19 31  1  0  0  0  0
 20 21  1  0  0  0  0
 20 22  1  0  0  0  0
 21 53  1  0  0  0  0
 22 54  1  0  0  0  0
 22 23  2  0  0  0  0
 23 30  1  0  0  0  0
 23 24  1  0  0  0  0
 24 25  2  0  0  0  0
 24 29  1  0  0  0  0
 25 26  1  0  0  0  0
 25 27  1  0  0  0  0
 26 55  1  0  0  0  0
 26 56  1  0  0  0  0
 26 57  1  0  0  0  0
 27 28  2  0  0  0  0
 28 58  1  0  0  0  0
 28 29  1  0  0  0  0
 30 59  1  0  0  0  0
 30 31  2  0  0  0  0
 31 60  1  0  0  0  0
 33 32  1  0  0  0  0
 32 61  1  0  0  0  0
 32 62  1  0  0  0  0
 33 35  1  0  0  0  0
 33 63  1  0  0  0  0
 33 34  1  0  0  0  0
 34 64  1  0  0  0  0
 35 65  1  0  0  0  0
 35 66  1  0  0  0  0
 36 67  1  0  0  0  0
 36 68  1  0  0  0  0
 36 37  1  0  0  0  0
 37 69  1  0  0  0  0
 37 70  1  0  0  0  0
M  ZZC   1 f1
M  ZZC   2 c1
M  ZZC   3 c2
M  ZZC   4 o1
M  ZZC   5 n1
M  ZZC   6 c3
M  ZZC   7 c4
M  ZZC   8 c5
M  ZZC   9 c6
M  ZZC  10 c7
M  ZZC  11 c8
M  ZZC  12 o2
M  ZZC  13 n2
M  ZZC  14 c9
M  ZZC  15 c10
M  ZZC  16 o3
M  ZZC  17 n3
M  ZZC  18 c11
M  ZZC  19 c12
M  ZZC  20 c13
M  ZZC  21 o4
M  ZZC  22 c14
M  ZZC  23 c15
M  ZZC  24 c16
M  ZZC  25 c17
M  ZZC  26 c18
M  ZZC  27 n4
M  ZZC  28 c19
M  ZZC  29 s1
M  ZZC  30 c20
M  ZZC  31 c21
M  ZZC  32 c22
M  ZZC  33 c23
M  ZZC  34 o5
M  ZZC  35 c24
M  ZZC  36 c25
M  ZZC  37 c26
M  ZZC  38 h11
M  ZZC  39 h31
M  ZZC  40 h51
M  ZZC  41 h52
M  ZZC  42 h53
M  ZZC  43 h61
M  ZZC  44 h62
M  ZZC  45 h63
M  ZZC  46 h71
M  ZZC  47 h72
M  ZZC  48 h73
M  ZZC  49 h91
M  ZZC  50 h01
M  ZZC  51 h111
M  ZZC  52 h112
M  ZZC  53 h41
M  ZZC  54 h141
M  ZZC  55 h181
M  ZZC  56 h182
M  ZZC  57 h183
M  ZZC  58 h191
M  ZZC  59 h201
M  ZZC  60 h211
M  ZZC  61 h221
M  ZZC  62 h222
M  ZZC  63 h231
M  ZZC  64 h02
M  ZZC  65 h241
M  ZZC  66 h242
M  ZZC  67 h251
M  ZZC  68 h252
M  ZZC  69 h261
M  ZZC  70 h262
M  ZZM   1 11
M  ZZI   1 90
M  ZZM   2 22
M  ZZI   2 109
M  ZZM   3 3
M  ZZI   3 121
M  ZZM   4 7
M  ZZI   4 81
M  ZZM   5 10
M  ZZI   5 211
M  ZZM   6 1
M  ZZI   6 113
M  ZZM   7 1
M  ZZI   7 110
M  ZZM   8 1
M  ZZI   8 111
M  ZZM   9 1
M  ZZI   9 111
M  ZZM  10 1
M  ZZI  10 111
M  ZZM  11 3
M  ZZI  11 121
M  ZZM  12 7
M  ZZI  12 81
M  ZZM  13 10
M  ZZI  13 192
M  ZZM  14 1
M  ZZI  14 113
M  ZZM  15 3
M  ZZI  15 121
M  ZZM  16 7
M  ZZI  16 81
M  ZZM  17 10
M  ZZI  17 211
M  ZZM  18 1
M  ZZI  18 112
M  ZZM  19 37
M  ZZI  19 124
M  ZZM  20 37
M  ZZI  20 124
M  ZZM  21 6
M  ZZI  21 62
M  ZZM  22 37
M  ZZI  22 125
M  ZZM  23 37
M  ZZI  23 124
M  ZZM  24 63
M  ZZI  24 104
M  ZZM  25 64
M  ZZI  25 105
M  ZZM  26 1
M  ZZI  26 111
M  ZZM  27 66
M  ZZI  27 222
M  ZZM  28 63
M  ZZI  28 104
M  ZZM  29 44
M  ZZI  29 248
M  ZZM  30 37
M  ZZI  30 125
M  ZZM  31 37
M  ZZI  31 125
M  ZZM  32 1
M  ZZI  32 112
M  ZZM  33 1
M  ZZI  33 113
M  ZZM  34 6
M  ZZI  34 60
M  ZZM  35 1
M  ZZI  35 112
M  ZZM  36 22
M  ZZI  36 109
M  ZZM  37 22
M  ZZI  37 109
M  ZZM  38 28
M  ZZI  38 11
M  ZZM  39 5
M  ZZI  39 1
M  ZZM  40 5
M  ZZI  40 1
M  ZZM  41 5
M  ZZI  41 1
M  ZZM  42 5
M  ZZI  42 1
M  ZZM  43 5
M  ZZI  43 1
M  ZZM  44 5
M  ZZI  44 1
M  ZZM  45 5
M  ZZI  45 1
M  ZZM  46 5
M  ZZI  46 1
M  ZZM  47 5
M  ZZI  47 1
M  ZZM  48 5
M  ZZI  48 1
M  ZZM  49 5
M  ZZI  49 1
M  ZZM  50 28
M  ZZI  50 11
M  ZZM  51 5
M  ZZI  51 1
M  ZZM  52 5
M  ZZI  52 1
M  ZZM  53 29
M  ZZI  53 27
M  ZZM  54 5
M  ZZI  54 1
M  ZZM  55 5
M  ZZI  55 1
M  ZZM  56 5
M  ZZI  56 1
M  ZZM  57 5
M  ZZI  57 1
M  ZZM  58 5
M  ZZI  58 1
M  ZZM  59 5
M  ZZI  59 1
M  ZZM  60 5
M  ZZI  60 1
M  ZZM  61 5
M  ZZI  61 1
M  ZZM  62 5
M  ZZI  62 1
M  ZZM  63 5
M  ZZI  63 1
M  ZZM  64 21
M  ZZI  64 20
M  ZZM  65 5
M  ZZI  65 1
M  ZZM  66 5
M  ZZI  66 1
M  ZZM  67 5
M  ZZI  67 1
M  ZZM  68 5
M  ZZI  68 1
M  ZZM  69 5
M  ZZI  69 1
M  ZZM  70 5
M  ZZI  70 1
M  END
> <IX>
1

> <NAME>
VHL_5EU1_20.pdb

> <Score>
-23.546443

> <Natom>
70

> <Nflex>
9

> <Hbond>
-8.685981

> <Hphob>
-6.166572

> <VwInt>
-33.381954

> <Dsolv>
20.446251

> <SolEl>
14.713081

> <Eintl>
9.162205

> <RecConf>
ND

> <projPath>
VHL_maps/

> <NAME_>
VHL_5EU1_20.pdb

$$$$
