VHL_6PSJ_1.pdb
  MOLSOFT 04032206443D

 68 70  0  0  1  0  0  0  0  0999 V2000
   15.8175   -6.2602   -5.4796 O   0  0  0  0  0  0  0  0  0  0  0  0
   16.8888   -5.9359   -4.9969 C   0  0  0  0  0  0  0  0  0  0  0  0
   17.1180   -4.7817   -4.2737 N   0  0  0  0  0  0  0  0  0  0  0  0
   16.1163   -3.7326   -4.0184 C   0  0  1  0  0  0  0  0  0  0  0  0
   15.8500   -3.5384   -2.4973 C   0  0  0  0  0  0  0  0  0  0  0  0
   15.3605   -4.8765   -1.9382 C   0  0  0  0  0  0  0  0  0  0  0  0
   14.7487   -2.5133   -2.2055 C   0  0  0  0  0  0  0  0  0  0  0  0
   17.1031   -3.0883   -1.7334 C   0  0  0  0  0  0  0  0  0  0  0  0
   16.6494   -2.5030   -4.7741 C   0  0  0  0  0  0  0  0  0  0  0  0
   17.8501   -2.2597   -4.8085 O   0  0  0  0  0  0  0  0  0  0  0  0
   15.7272   -1.6964   -5.4443 N   0  0  0  0  0  0  0  0  0  0  0  0
   16.1779   -0.7329   -6.4311 C   0  0  2  0  0  0  0  0  0  0  0  0
   16.6374    0.5604   -5.7595 C   0  0  0  0  0  0  0  0  0  0  0  0
   16.1350    0.9891   -4.7289 O   0  0  0  0  0  0  0  0  0  0  0  0
   17.6311    1.2173   -6.4625 N   0  0  0  0  0  0  0  0  0  0  0  0
   18.1999    2.4673   -5.9851 C   0  0  1  0  0  0  0  0  0  0  0  0
   19.4835    2.8091   -6.7394 C   0  0  0  0  0  0  0  0  0  0  0  0
   17.2060    3.6104   -6.0619 C   0  0  0  0  0  0  0  0  0  0  0  0
   17.1070    4.5171   -5.0119 C   0  0  0  0  0  0  0  0  0  0  0  0
   16.1990    5.5601   -5.0552 C   0  0  0  0  0  0  0  0  0  0  0  0
   15.3666    5.7389   -6.1543 C   0  0  0  0  0  0  0  0  0  0  0  0
   14.4349    6.8588   -6.1895 C   0  0  0  0  0  0  0  0  0  0  0  0
   13.4615    7.2617   -5.2817 C   0  0  0  0  0  0  0  0  0  0  0  0
   13.0563    6.5827   -4.0293 C   0  0  0  0  0  0  0  0  0  0  0  0
   12.8233    8.4411   -5.5978 N   0  0  0  0  0  0  0  0  0  0  0  0
   13.2963    8.9077   -6.7301 C   0  0  0  0  0  0  0  0  0  0  0  0
   14.4830    7.9642   -7.5075 S   0  0  0  0  0  0  0  0  0  0  0  0
   15.4632    4.8367   -7.2096 C   0  0  0  0  0  0  0  0  0  0  0  0
   16.3695    3.7903   -7.1620 C   0  0  0  0  0  0  0  0  0  0  0  0
   14.9632   -0.5161   -7.3192 C   0  0  0  0  0  0  0  0  0  0  0  0
   13.7818   -0.6927   -6.3763 C   0  0  1  0  0  0  0  0  0  0  0  0
   12.6487   -1.2468   -7.0409 O   0  0  0  0  0  0  0  0  0  0  0  0
   14.2804   -1.6655   -5.3204 C   0  0  0  0  0  0  0  0  0  0  0  0
   18.1005   -6.8159   -5.1267 C   0  0  0  0  0  0  0  0  0  0  0  0
   18.0745   -4.5876   -3.9998 H   0  0  0  0  0  0  0  0  0  0  0  0
   15.1869   -4.0575   -4.4854 H   0  0  0  0  0  0  0  0  0  0  0  0
   14.4677   -5.2306   -2.4637 H   0  0  0  0  0  0  0  0  0  0  0  0
   15.1009   -4.7847   -0.8821 H   0  0  0  0  0  0  0  0  0  0  0  0
   16.1193   -5.6549   -2.0336 H   0  0  0  0  0  0  0  0  0  0  0  0
   13.8288   -2.7433   -2.7498 H   0  0  0  0  0  0  0  0  0  0  0  0
   15.0473   -1.5074   -2.5188 H   0  0  0  0  0  0  0  0  0  0  0  0
   14.5290   -2.4566   -1.1352 H   0  0  0  0  0  0  0  0  0  0  0  0
   17.4539   -2.1077   -2.0697 H   0  0  0  0  0  0  0  0  0  0  0  0
   17.9255   -3.7888   -1.8568 H   0  0  0  0  0  0  0  0  0  0  0  0
   16.9099   -3.0116   -0.6585 H   0  0  0  0  0  0  0  0  0  0  0  0
   17.0106   -1.1536   -7.0023 H   0  0  0  0  0  0  0  0  0  0  0  0
   18.0462    0.7692   -7.2744 H   0  0  0  0  0  0  0  0  0  0  0  0
   18.4573    2.2940   -4.9335 H   0  0  0  0  0  0  0  0  0  0  0  0
   19.9694    3.6919   -6.3125 H   0  0  0  0  0  0  0  0  0  0  0  0
   19.2922    3.0211   -7.7948 H   0  0  0  0  0  0  0  0  0  0  0  0
   20.1958    1.9796   -6.6986 H   0  0  0  0  0  0  0  0  0  0  0  0
   17.7411    4.4115   -4.1364 H   0  0  0  0  0  0  0  0  0  0  0  0
   16.1566    6.2490   -4.2168 H   0  0  0  0  0  0  0  0  0  0  0  0
   12.0118    6.8059   -3.7903 H   0  0  0  0  0  0  0  0  0  0  0  0
   13.6736    6.9204   -3.1923 H   0  0  0  0  0  0  0  0  0  0  0  0
   13.1499    5.4960   -4.1120 H   0  0  0  0  0  0  0  0  0  0  0  0
   12.9606    9.8404   -7.1518 H   0  0  0  0  0  0  0  0  0  0  0  0
   14.8213    4.9353   -8.0807 H   0  0  0  0  0  0  0  0  0  0  0  0
   16.4117    3.0973   -7.9946 H   0  0  0  0  0  0  0  0  0  0  0  0
   14.9507    0.4610   -7.8135 H   0  0  0  0  0  0  0  0  0  0  0  0
   14.9338   -1.2775   -8.1065 H   0  0  0  0  0  0  0  0  0  0  0  0
   13.4897    0.2601   -5.9200 H   0  0  0  0  0  0  0  0  0  0  0  0
   12.3633   -0.6217   -7.7312 H   0  0  0  0  0  0  0  0  0  0  0  0
   13.8554   -2.6661   -5.4038 H   0  0  0  0  0  0  0  0  0  0  0  0
   14.0169   -1.2736   -4.3391 H   0  0  0  0  0  0  0  0  0  0  0  0
   18.0008   -7.4431   -6.0175 H   0  0  0  0  0  0  0  0  0  0  0  0
   18.1706   -7.4555   -4.2441 H   0  0  0  0  0  0  0  0  0  0  0  0
   19.0115   -6.2177   -5.2257 H   0  0  0  0  0  0  0  0  0  0  0  0
  1  2  2  0  0  0  0
  2  3  1  0  0  0  0
  2 34  1  0  0  0  0
  4  3  1  0  0  0  0
  3 35  1  0  0  0  0
  4  5  1  0  0  0  0
  4 36  1  0  0  0  0
  4  9  1  0  0  0  0
  5  6  1  0  0  0  0
  5  7  1  0  0  0  0
  5  8  1  0  0  0  0
  6 37  1  0  0  0  0
  6 38  1  0  0  0  0
  6 39  1  0  0  0  0
  7 40  1  0  0  0  0
  7 41  1  0  0  0  0
  7 42  1  0  0  0  0
  8 43  1  0  0  0  0
  8 44  1  0  0  0  0
  8 45  1  0  0  0  0
  9 10  2  0  0  0  0
  9 11  1  0  0  0  0
 11 33  1  0  0  0  0
 12 11  1  0  0  0  0
 12 30  1  0  0  0  0
 12 46  1  0  0  0  0
 12 13  1  0  0  0  0
 13 14  2  0  0  0  0
 13 15  1  0  0  0  0
 15 47  1  0  0  0  0
 16 15  1  0  0  0  0
 16 48  1  0  0  0  0
 16 17  1  0  0  0  0
 16 18  1  0  0  0  0
 17 49  1  0  0  0  0
 17 50  1  0  0  0  0
 17 51  1  0  0  0  0
 18 19  1  0  0  0  0
 18 29  2  0  0  0  0
 19 52  1  0  0  0  0
 19 20  2  0  0  0  0
 20 53  1  0  0  0  0
 20 21  1  0  0  0  0
 21 28  2  0  0  0  0
 21 22  1  0  0  0  0
 22 23  2  0  0  0  0
 22 27  1  0  0  0  0
 23 24  1  0  0  0  0
 23 25  1  0  0  0  0
 24 54  1  0  0  0  0
 24 55  1  0  0  0  0
 24 56  1  0  0  0  0
 25 26  2  0  0  0  0
 26 57  1  0  0  0  0
 26 27  1  0  0  0  0
 28 58  1  0  0  0  0
 28 29  1  0  0  0  0
 29 59  1  0  0  0  0
 31 30  1  0  0  0  0
 30 60  1  0  0  0  0
 30 61  1  0  0  0  0
 31 33  1  0  0  0  0
 31 62  1  0  0  0  0
 31 32  1  0  0  0  0
 32 63  1  0  0  0  0
 33 64  1  0  0  0  0
 33 65  1  0  0  0  0
 34 66  1  0  0  0  0
 34 67  1  0  0  0  0
 34 68  1  0  0  0  0
M  ZZC   1 o1
M  ZZC   2 c1
M  ZZC   3 n1
M  ZZC   4 c2
M  ZZC   5 c3
M  ZZC   6 c4
M  ZZC   7 c5
M  ZZC   8 c6
M  ZZC   9 c7
M  ZZC  10 o2
M  ZZC  11 n2
M  ZZC  12 c8
M  ZZC  13 c9
M  ZZC  14 o3
M  ZZC  15 n3
M  ZZC  16 c10
M  ZZC  17 c11
M  ZZC  18 c12
M  ZZC  19 c13
M  ZZC  20 c14
M  ZZC  21 c15
M  ZZC  22 c16
M  ZZC  23 c17
M  ZZC  24 c18
M  ZZC  25 n4
M  ZZC  26 c19
M  ZZC  27 s1
M  ZZC  28 c20
M  ZZC  29 c21
M  ZZC  30 c22
M  ZZC  31 c23
M  ZZC  32 o4
M  ZZC  33 c24
M  ZZC  34 c25
M  ZZC  35 h11
M  ZZC  36 h21
M  ZZC  37 h41
M  ZZC  38 h42
M  ZZC  39 h43
M  ZZC  40 h51
M  ZZC  41 h52
M  ZZC  42 h53
M  ZZC  43 h61
M  ZZC  44 h62
M  ZZC  45 h63
M  ZZC  46 h81
M  ZZC  47 h31
M  ZZC  48 h101
M  ZZC  49 h111
M  ZZC  50 h112
M  ZZC  51 h113
M  ZZC  52 h131
M  ZZC  53 h141
M  ZZC  54 h181
M  ZZC  55 h182
M  ZZC  56 h183
M  ZZC  57 h191
M  ZZC  58 h201
M  ZZC  59 h211
M  ZZC  60 h221
M  ZZC  61 h222
M  ZZC  62 h231
M  ZZC  63 h01
M  ZZC  64 h241
M  ZZC  65 h242
M  ZZC  66 h251
M  ZZC  67 h252
M  ZZC  68 h253
M  ZZM   1 7
M  ZZI   1 81
M  ZZM   2 3
M  ZZI   2 121
M  ZZM   3 10
M  ZZI   3 211
M  ZZM   4 1
M  ZZI   4 113
M  ZZM   5 1
M  ZZI   5 110
M  ZZM   6 1
M  ZZI   6 111
M  ZZM   7 1
M  ZZI   7 111
M  ZZM   8 1
M  ZZI   8 111
M  ZZM   9 3
M  ZZI   9 121
M  ZZM  10 7
M  ZZI  10 81
M  ZZM  11 10
M  ZZI  11 192
M  ZZM  12 1
M  ZZI  12 113
M  ZZM  13 3
M  ZZI  13 121
M  ZZM  14 7
M  ZZI  14 81
M  ZZM  15 10
M  ZZI  15 211
M  ZZM  16 1
M  ZZI  16 113
M  ZZM  17 1
M  ZZI  17 111
M  ZZM  18 37
M  ZZI  18 124
M  ZZM  19 37
M  ZZI  19 125
M  ZZM  20 37
M  ZZI  20 125
M  ZZM  21 37
M  ZZI  21 124
M  ZZM  22 63
M  ZZI  22 104
M  ZZM  23 64
M  ZZI  23 105
M  ZZM  24 1
M  ZZI  24 111
M  ZZM  25 66
M  ZZI  25 222
M  ZZM  26 63
M  ZZI  26 104
M  ZZM  27 44
M  ZZI  27 248
M  ZZM  28 37
M  ZZI  28 125
M  ZZM  29 37
M  ZZI  29 125
M  ZZM  30 1
M  ZZI  30 112
M  ZZM  31 1
M  ZZI  31 113
M  ZZM  32 6
M  ZZI  32 60
M  ZZM  33 1
M  ZZI  33 112
M  ZZM  34 1
M  ZZI  34 111
M  ZZM  35 28
M  ZZI  35 11
M  ZZM  36 5
M  ZZI  36 1
M  ZZM  37 5
M  ZZI  37 1
M  ZZM  38 5
M  ZZI  38 1
M  ZZM  39 5
M  ZZI  39 1
M  ZZM  40 5
M  ZZI  40 1
M  ZZM  41 5
M  ZZI  41 1
M  ZZM  42 5
M  ZZI  42 1
M  ZZM  43 5
M  ZZI  43 1
M  ZZM  44 5
M  ZZI  44 1
M  ZZM  45 5
M  ZZI  45 1
M  ZZM  46 5
M  ZZI  46 1
M  ZZM  47 28
M  ZZI  47 11
M  ZZM  48 5
M  ZZI  48 1
M  ZZM  49 5
M  ZZI  49 1
M  ZZM  50 5
M  ZZI  50 1
M  ZZM  51 5
M  ZZI  51 1
M  ZZM  52 5
M  ZZI  52 1
M  ZZM  53 5
M  ZZI  53 1
M  ZZM  54 5
M  ZZI  54 1
M  ZZM  55 5
M  ZZI  55 1
M  ZZM  56 5
M  ZZI  56 1
M  ZZM  57 5
M  ZZI  57 1
M  ZZM  58 5
M  ZZI  58 1
M  ZZM  59 5
M  ZZI  59 1
M  ZZM  60 5
M  ZZI  60 1
M  ZZM  61 5
M  ZZI  61 1
M  ZZM  62 5
M  ZZI  62 1
M  ZZM  63 21
M  ZZI  63 20
M  ZZM  64 5
M  ZZI  64 1
M  ZZM  65 5
M  ZZI  65 1
M  ZZM  66 5
M  ZZI  66 1
M  ZZM  67 5
M  ZZI  67 1
M  ZZM  68 5
M  ZZI  68 1
M  END
> <IX>
1

> <NAME>
VHL_6PSJ_1.pdb

> <Score>
0.260531

> <Natom>
68

> <Nflex>
8

> <Hbond>
-5.037448

> <Hphob>
-6.883898

> <VwInt>
-26.604463

> <Dsolv>
22.948649

> <SolEl>
25.716681

> <Eintl>
8.729084

> <RecConf>
ND

> <projPath>
VHL_maps/

> <NAME_>
VHL_6PSJ_1.pdb

$$$$
