VHL_5G0I_13.pdb
  MOLSOFT 04032206403D

 65 67  0  0  1  0  0  0  0  0999 V2000
   17.2834   -6.2587   -4.3624 C   0  0  0  0  0  0  0  0  0  0  0  0
   16.4484   -5.1570   -3.7621 C   0  0  0  0  0  0  0  0  0  0  0  0
   15.3520   -5.3666   -3.2664 O   0  0  0  0  0  0  0  0  0  0  0  0
   17.0229   -3.9084   -3.8612 N   0  0  0  0  0  0  0  0  0  0  0  0
   16.2805   -2.6842   -3.5483 C   0  0  1  0  0  0  0  0  0  0  0  0
   16.5408   -2.1182   -2.1185 C   0  0  0  0  0  0  0  0  0  0  0  0
   17.9745   -1.5952   -1.9437 C   0  0  0  0  0  0  0  0  0  0  0  0
   15.5680   -0.9626   -1.8359 C   0  0  0  0  0  0  0  0  0  0  0  0
   16.2895   -3.2017   -1.0561 C   0  0  0  0  0  0  0  0  0  0  0  0
   16.6553   -1.7151   -4.6873 C   0  0  0  0  0  0  0  0  0  0  0  0
   17.8287   -1.4861   -4.9575 O   0  0  0  0  0  0  0  0  0  0  0  0
   15.6075   -1.1634   -5.4230 N   0  0  0  0  0  0  0  0  0  0  0  0
   15.8633   -0.3851   -6.6255 C   0  0  2  0  0  0  0  0  0  0  0  0
   16.2064    1.0675   -6.2853 C   0  0  0  0  0  0  0  0  0  0  0  0
   15.5512    1.7391   -5.4996 O   0  0  0  0  0  0  0  0  0  0  0  0
   17.3058    1.5492   -6.9691 N   0  0  0  0  0  0  0  0  0  0  0  0
   17.7862    2.9058   -6.7653 C   0  0  0  0  0  0  0  0  0  0  0  0
   19.2223    3.1255   -7.1781 C   0  0  0  0  0  0  0  0  0  0  0  0
   20.1557    2.0956   -7.1647 C   0  0  0  0  0  0  0  0  0  0  0  0
   21.4744    2.3271   -7.5007 C   0  0  0  0  0  0  0  0  0  0  0  0
   21.9153    3.5959   -7.8432 C   0  0  0  0  0  0  0  0  0  0  0  0
   23.3151    3.8157   -8.1686 C   0  0  0  0  0  0  0  0  0  0  0  0
   24.3747    4.2090   -7.3638 C   0  0  0  0  0  0  0  0  0  0  0  0
   24.3172    4.5516   -5.9249 C   0  0  0  0  0  0  0  0  0  0  0  0
   25.6014    4.2554   -7.9954 N   0  0  0  0  0  0  0  0  0  0  0  0
   25.4599    3.9289   -9.2603 C   0  0  0  0  0  0  0  0  0  0  0  0
   23.8753    3.5535   -9.7710 S   0  0  0  0  0  0  0  0  0  0  0  0
   20.9945    4.6356   -7.8470 C   0  0  0  0  0  0  0  0  0  0  0  0
   19.6670    4.4011   -7.5186 C   0  0  0  0  0  0  0  0  0  0  0  0
   14.5616   -0.4716   -7.4032 C   0  0  0  0  0  0  0  0  0  0  0  0
   13.4923   -0.5938   -6.3275 C   0  0  1  0  0  0  0  0  0  0  0  0
   12.3583   -1.3141   -6.8096 O   0  0  0  0  0  0  0  0  0  0  0  0
   14.1853   -1.3842   -5.2293 C   0  0  0  0  0  0  0  0  0  0  0  0
   18.2694   -5.9016   -4.6726 H   0  0  0  0  0  0  0  0  0  0  0  0
   16.7659   -6.6606   -5.2388 H   0  0  0  0  0  0  0  0  0  0  0  0
   17.4209   -7.0537   -3.6266 H   0  0  0  0  0  0  0  0  0  0  0  0
   17.9687   -3.8246   -4.2243 H   0  0  0  0  0  0  0  0  0  0  0  0
   15.2217   -2.9448   -3.6187 H   0  0  0  0  0  0  0  0  0  0  0  0
   18.1807   -1.3324   -0.9013 H   0  0  0  0  0  0  0  0  0  0  0  0
   18.1598   -0.6947   -2.5364 H   0  0  0  0  0  0  0  0  0  0  0  0
   18.7103   -2.3446   -2.2393 H   0  0  0  0  0  0  0  0  0  0  0  0
   15.7052   -0.1416   -2.5472 H   0  0  0  0  0  0  0  0  0  0  0  0
   15.7192   -0.5484   -0.8333 H   0  0  0  0  0  0  0  0  0  0  0  0
   14.5234   -1.2806   -1.9108 H   0  0  0  0  0  0  0  0  0  0  0  0
   16.3840   -2.7980   -0.0428 H   0  0  0  0  0  0  0  0  0  0  0  0
   17.0042   -4.0260   -1.1352 H   0  0  0  0  0  0  0  0  0  0  0  0
   15.2812   -3.6202   -1.1409 H   0  0  0  0  0  0  0  0  0  0  0  0
   16.6877   -0.8356   -7.1905 H   0  0  0  0  0  0  0  0  0  0  0  0
   17.8009    0.9371   -7.6121 H   0  0  0  0  0  0  0  0  0  0  0  0
   17.1242    3.5563   -7.3476 H   0  0  0  0  0  0  0  0  0  0  0  0
   17.6693    3.1687   -5.7084 H   0  0  0  0  0  0  0  0  0  0  0  0
   19.8649    1.0871   -6.8927 H   0  0  0  0  0  0  0  0  0  0  0  0
   22.1628    1.4910   -7.5001 H   0  0  0  0  0  0  0  0  0  0  0  0
   25.2793    4.9354   -5.5734 H   0  0  0  0  0  0  0  0  0  0  0  0
   24.0745    3.6693   -5.3285 H   0  0  0  0  0  0  0  0  0  0  0  0
   23.5607    5.3182   -5.7338 H   0  0  0  0  0  0  0  0  0  0  0  0
   26.2941    3.8986   -9.9465 H   0  0  0  0  0  0  0  0  0  0  0  0
   21.3069    5.6424   -8.1083 H   0  0  0  0  0  0  0  0  0  0  0  0
   18.9723    5.2361   -7.5245 H   0  0  0  0  0  0  0  0  0  0  0  0
   14.3865    0.3840   -8.0642 H   0  0  0  0  0  0  0  0  0  0  0  0
   14.5695   -1.3724   -8.0257 H   0  0  0  0  0  0  0  0  0  0  0  0
   13.1671    0.3868   -5.9626 H   0  0  0  0  0  0  0  0  0  0  0  0
   11.9210   -0.7737   -7.4930 H   0  0  0  0  0  0  0  0  0  0  0  0
   13.9699   -2.4549   -5.2988 H   0  0  0  0  0  0  0  0  0  0  0  0
   13.8836   -1.0439   -4.2349 H   0  0  0  0  0  0  0  0  0  0  0  0
  1 34  1  0  0  0  0
  1 35  1  0  0  0  0
  1 36  1  0  0  0  0
  1  2  1  0  0  0  0
  2  3  2  0  0  0  0
  2  4  1  0  0  0  0
  4 37  1  0  0  0  0
  5  4  1  0  0  0  0
  5 38  1  0  0  0  0
  5  6  1  0  0  0  0
  5 10  1  0  0  0  0
  6  7  1  0  0  0  0
  6  8  1  0  0  0  0
  6  9  1  0  0  0  0
  7 39  1  0  0  0  0
  7 40  1  0  0  0  0
  7 41  1  0  0  0  0
  8 42  1  0  0  0  0
  8 43  1  0  0  0  0
  8 44  1  0  0  0  0
  9 45  1  0  0  0  0
  9 46  1  0  0  0  0
  9 47  1  0  0  0  0
 10 11  2  0  0  0  0
 10 12  1  0  0  0  0
 12 33  1  0  0  0  0
 13 12  1  0  0  0  0
 13 30  1  0  0  0  0
 13 48  1  0  0  0  0
 13 14  1  0  0  0  0
 14 15  2  0  0  0  0
 14 16  1  0  0  0  0
 16 49  1  0  0  0  0
 16 17  1  0  0  0  0
 17 50  1  0  0  0  0
 17 51  1  0  0  0  0
 17 18  1  0  0  0  0
 18 19  1  0  0  0  0
 18 29  2  0  0  0  0
 19 52  1  0  0  0  0
 19 20  2  0  0  0  0
 20 53  1  0  0  0  0
 20 21  1  0  0  0  0
 21 28  2  0  0  0  0
 21 22  1  0  0  0  0
 22 23  2  0  0  0  0
 22 27  1  0  0  0  0
 23 24  1  0  0  0  0
 23 25  1  0  0  0  0
 24 54  1  0  0  0  0
 24 55  1  0  0  0  0
 24 56  1  0  0  0  0
 25 26  2  0  0  0  0
 26 57  1  0  0  0  0
 26 27  1  0  0  0  0
 28 58  1  0  0  0  0
 28 29  1  0  0  0  0
 29 59  1  0  0  0  0
 31 30  1  0  0  0  0
 30 60  1  0  0  0  0
 30 61  1  0  0  0  0
 31 33  1  0  0  0  0
 31 62  1  0  0  0  0
 31 32  1  0  0  0  0
 32 63  1  0  0  0  0
 33 64  1  0  0  0  0
 33 65  1  0  0  0  0
M  ZZC   1 c1
M  ZZC   2 c2
M  ZZC   3 o1
M  ZZC   4 n1
M  ZZC   5 c3
M  ZZC   6 c4
M  ZZC   7 c5
M  ZZC   8 c6
M  ZZC   9 c7
M  ZZC  10 c8
M  ZZC  11 o2
M  ZZC  12 n2
M  ZZC  13 c9
M  ZZC  14 c10
M  ZZC  15 o3
M  ZZC  16 n3
M  ZZC  17 c11
M  ZZC  18 c12
M  ZZC  19 c13
M  ZZC  20 c14
M  ZZC  21 c15
M  ZZC  22 c16
M  ZZC  23 c17
M  ZZC  24 c18
M  ZZC  25 n4
M  ZZC  26 c19
M  ZZC  27 s1
M  ZZC  28 c20
M  ZZC  29 c21
M  ZZC  30 c22
M  ZZC  31 c23
M  ZZC  32 o4
M  ZZC  33 c24
M  ZZC  34 h11
M  ZZC  35 h12
M  ZZC  36 h13
M  ZZC  37 h01
M  ZZC  38 h31
M  ZZC  39 h51
M  ZZC  40 h52
M  ZZC  41 h53
M  ZZC  42 h61
M  ZZC  43 h62
M  ZZC  44 h63
M  ZZC  45 h71
M  ZZC  46 h72
M  ZZC  47 h73
M  ZZC  48 h91
M  ZZC  49 h02
M  ZZC  50 h111
M  ZZC  51 h112
M  ZZC  52 h131
M  ZZC  53 h141
M  ZZC  54 h181
M  ZZC  55 h182
M  ZZC  56 h183
M  ZZC  57 h191
M  ZZC  58 h201
M  ZZC  59 h211
M  ZZC  60 h221
M  ZZC  61 h222
M  ZZC  62 h231
M  ZZC  63 h41
M  ZZC  64 h241
M  ZZC  65 h242
M  ZZM   1 1
M  ZZI   1 111
M  ZZM   2 3
M  ZZI   2 121
M  ZZM   3 7
M  ZZI   3 81
M  ZZM   4 10
M  ZZI   4 211
M  ZZM   5 1
M  ZZI   5 113
M  ZZM   6 1
M  ZZI   6 110
M  ZZM   7 1
M  ZZI   7 111
M  ZZM   8 1
M  ZZI   8 111
M  ZZM   9 1
M  ZZI   9 111
M  ZZM  10 3
M  ZZI  10 121
M  ZZM  11 7
M  ZZI  11 81
M  ZZM  12 10
M  ZZI  12 192
M  ZZM  13 1
M  ZZI  13 113
M  ZZM  14 3
M  ZZI  14 121
M  ZZM  15 7
M  ZZI  15 81
M  ZZM  16 10
M  ZZI  16 211
M  ZZM  17 1
M  ZZI  17 112
M  ZZM  18 37
M  ZZI  18 124
M  ZZM  19 37
M  ZZI  19 125
M  ZZM  20 37
M  ZZI  20 125
M  ZZM  21 37
M  ZZI  21 124
M  ZZM  22 63
M  ZZI  22 104
M  ZZM  23 64
M  ZZI  23 105
M  ZZM  24 1
M  ZZI  24 111
M  ZZM  25 66
M  ZZI  25 222
M  ZZM  26 63
M  ZZI  26 104
M  ZZM  27 44
M  ZZI  27 248
M  ZZM  28 37
M  ZZI  28 125
M  ZZM  29 37
M  ZZI  29 125
M  ZZM  30 1
M  ZZI  30 112
M  ZZM  31 1
M  ZZI  31 113
M  ZZM  32 6
M  ZZI  32 60
M  ZZM  33 1
M  ZZI  33 112
M  ZZM  34 5
M  ZZI  34 1
M  ZZM  35 5
M  ZZI  35 1
M  ZZM  36 5
M  ZZI  36 1
M  ZZM  37 28
M  ZZI  37 11
M  ZZM  38 5
M  ZZI  38 1
M  ZZM  39 5
M  ZZI  39 1
M  ZZM  40 5
M  ZZI  40 1
M  ZZM  41 5
M  ZZI  41 1
M  ZZM  42 5
M  ZZI  42 1
M  ZZM  43 5
M  ZZI  43 1
M  ZZM  44 5
M  ZZI  44 1
M  ZZM  45 5
M  ZZI  45 1
M  ZZM  46 5
M  ZZI  46 1
M  ZZM  47 5
M  ZZI  47 1
M  ZZM  48 5
M  ZZI  48 1
M  ZZM  49 28
M  ZZI  49 11
M  ZZM  50 5
M  ZZI  50 1
M  ZZM  51 5
M  ZZI  51 1
M  ZZM  52 5
M  ZZI  52 1
M  ZZM  53 5
M  ZZI  53 1
M  ZZM  54 5
M  ZZI  54 1
M  ZZM  55 5
M  ZZI  55 1
M  ZZM  56 5
M  ZZI  56 1
M  ZZM  57 5
M  ZZI  57 1
M  ZZM  58 5
M  ZZI  58 1
M  ZZM  59 5
M  ZZI  59 1
M  ZZM  60 5
M  ZZI  60 1
M  ZZM  61 5
M  ZZI  61 1
M  ZZM  62 5
M  ZZI  62 1
M  ZZM  63 21
M  ZZI  63 20
M  ZZM  64 5
M  ZZI  64 1
M  ZZM  65 5
M  ZZI  65 1
M  END
> <IX>
1

> <NAME>
VHL_5G0I_13.pdb

> <Score>
-15.943395

> <Natom>
65

> <Nflex>
8

> <Hbond>
-4.835048

> <Hphob>
-6.268889

> <VwInt>
-32.268816

> <Dsolv>
17.441267

> <SolEl>
18.260235

> <Eintl>
4.709239

> <RecConf>
ND

> <projPath>
VHL_maps/

> <NAME_>
VHL_5G0I_13.pdb

$$$$
