VHL_6SD9_1.pdb
  MOLSOFT 04032206423D

 65 67  0  0  1  0  0  0  0  0999 V2000
   18.1120   -6.6473   -5.1146 C   0  0  0  0  0  0  0  0  0  0  0  0
   16.8979   -5.7729   -4.9571 C   0  0  0  0  0  0  0  0  0  0  0  0
   15.8133   -6.1268   -5.3859 O   0  0  0  0  0  0  0  0  0  0  0  0
   17.1413   -4.6002   -4.2694 N   0  0  0  0  0  0  0  0  0  0  0  0
   16.1347   -3.5590   -4.0044 C   0  0  1  0  0  0  0  0  0  0  0  0
   15.8991   -3.3553   -2.4781 C   0  0  0  0  0  0  0  0  0  0  0  0
   15.4337   -4.6897   -1.8836 C   0  0  0  0  0  0  0  0  0  0  0  0
   17.1675   -2.8912   -1.7475 C   0  0  0  0  0  0  0  0  0  0  0  0
   14.7977   -2.3308   -2.1809 C   0  0  0  0  0  0  0  0  0  0  0  0
   16.6275   -2.3238   -4.7881 C   0  0  0  0  0  0  0  0  0  0  0  0
   17.8223   -2.0562   -4.8466 O   0  0  0  0  0  0  0  0  0  0  0  0
   15.6740   -1.5546   -5.4628 N   0  0  0  0  0  0  0  0  0  0  0  0
   16.0659   -0.6441   -6.5286 C   0  0  2  0  0  0  0  0  0  0  0  0
   16.4475    0.7488   -6.0199 C   0  0  0  0  0  0  0  0  0  0  0  0
   15.9238    1.2693   -5.0442 O   0  0  0  0  0  0  0  0  0  0  0  0
   17.3814    1.3825   -6.8186 N   0  0  0  0  0  0  0  0  0  0  0  0
   17.8313    2.7384   -6.5497 C   0  0  0  0  0  0  0  0  0  0  0  0
   19.2419    3.0179   -7.0111 C   0  0  0  0  0  0  0  0  0  0  0  0
   19.6577    4.3230   -7.2665 C   0  0  0  0  0  0  0  0  0  0  0  0
   20.9673    4.6008   -7.6337 C   0  0  0  0  0  0  0  0  0  0  0  0
   21.8983    3.5765   -7.7536 C   0  0  0  0  0  0  0  0  0  0  0  0
   23.2829    3.8367   -8.1134 C   0  0  0  0  0  0  0  0  0  0  0  0
   24.3517    4.2549   -7.3338 C   0  0  0  0  0  0  0  0  0  0  0  0
   24.3225    4.5853   -5.8911 C   0  0  0  0  0  0  0  0  0  0  0  0
   25.5605    4.3368   -7.9959 N   0  0  0  0  0  0  0  0  0  0  0  0
   25.3974    4.0052   -9.2570 C   0  0  0  0  0  0  0  0  0  0  0  0
   23.8114    3.5885   -9.7295 S   0  0  0  0  0  0  0  0  0  0  0  0
   21.4843    2.2792   -7.4976 C   0  0  0  0  0  0  0  0  0  0  0  0
   20.1839    2.0039   -7.1290 C   0  0  0  0  0  0  0  0  0  0  0  0
   14.8291   -0.5743   -7.4100 C   0  0  0  0  0  0  0  0  0  0  0  0
   13.6769   -0.6943   -6.4237 C   0  0  1  0  0  0  0  0  0  0  0  0
   12.5350   -1.3107   -7.0130 O   0  0  0  0  0  0  0  0  0  0  0  0
   14.2277   -1.5832   -5.3218 C   0  0  0  0  0  0  0  0  0  0  0  0
   19.0166   -6.0448   -5.2414 H   0  0  0  0  0  0  0  0  0  0  0  0
   17.9928   -7.2800   -5.9992 H   0  0  0  0  0  0  0  0  0  0  0  0
   18.2106   -7.2829   -4.2314 H   0  0  0  0  0  0  0  0  0  0  0  0
   18.1020   -4.3960   -4.0189 H   0  0  0  0  0  0  0  0  0  0  0  0
   15.2007   -3.9058   -4.4471 H   0  0  0  0  0  0  0  0  0  0  0  0
   15.1837   -4.5805   -0.8254 H   0  0  0  0  0  0  0  0  0  0  0  0
   16.2021   -5.4603   -1.9678 H   0  0  0  0  0  0  0  0  0  0  0  0
   14.5405   -5.0666   -2.3918 H   0  0  0  0  0  0  0  0  0  0  0  0
   16.9934   -2.7907   -0.6713 H   0  0  0  0  0  0  0  0  0  0  0  0
   17.5152   -1.9195   -2.1115 H   0  0  0  0  0  0  0  0  0  0  0  0
   17.9853   -3.5994   -1.8684 H   0  0  0  0  0  0  0  0  0  0  0  0
   15.0804   -1.3265   -2.5082 H   0  0  0  0  0  0  0  0  0  0  0  0
   14.5974   -2.2608   -1.1066 H   0  0  0  0  0  0  0  0  0  0  0  0
   13.8534   -2.6100   -2.6580 H   0  0  0  0  0  0  0  0  0  0  0  0
   16.9138   -1.0667   -7.0775 H   0  0  0  0  0  0  0  0  0  0  0  0
   17.7745    0.8835   -7.6118 H   0  0  0  0  0  0  0  0  0  0  0  0
   17.1301    3.4016   -7.0681 H   0  0  0  0  0  0  0  0  0  0  0  0
   17.7548    2.9389   -5.4758 H   0  0  0  0  0  0  0  0  0  0  0  0
   18.9546    5.1457   -7.1734 H   0  0  0  0  0  0  0  0  0  0  0  0
   21.2586    5.6293   -7.8254 H   0  0  0  0  0  0  0  0  0  0  0  0
   25.2926    4.9619   -5.5539 H   0  0  0  0  0  0  0  0  0  0  0  0
   24.0867    3.6989   -5.2978 H   0  0  0  0  0  0  0  0  0  0  0  0
   23.5734    5.3538   -5.6803 H   0  0  0  0  0  0  0  0  0  0  0  0
   26.2152    3.9971   -9.9633 H   0  0  0  0  0  0  0  0  0  0  0  0
   22.1819    1.4557   -7.5860 H   0  0  0  0  0  0  0  0  0  0  0  0
   19.9141    0.9731   -6.9321 H   0  0  0  0  0  0  0  0  0  0  0  0
   14.7633    0.3402   -8.0088 H   0  0  0  0  0  0  0  0  0  0  0  0
   14.8178   -1.4205   -8.1056 H   0  0  0  0  0  0  0  0  0  0  0  0
   13.3840    0.2842   -6.0262 H   0  0  0  0  0  0  0  0  0  0  0  0
   12.1857   -0.7145   -7.7000 H   0  0  0  0  0  0  0  0  0  0  0  0
   13.8470   -2.6050   -5.3589 H   0  0  0  0  0  0  0  0  0  0  0  0
   13.9546   -1.1590   -4.3558 H   0  0  0  0  0  0  0  0  0  0  0  0
  1 34  1  0  0  0  0
  1 35  1  0  0  0  0
  1 36  1  0  0  0  0
  1  2  1  0  0  0  0
  2  3  2  0  0  0  0
  2  4  1  0  0  0  0
  4 37  1  0  0  0  0
  5  4  1  0  0  0  0
  5 38  1  0  0  0  0
  5  6  1  0  0  0  0
  5 10  1  0  0  0  0
  6  7  1  0  0  0  0
  6  8  1  0  0  0  0
  6  9  1  0  0  0  0
  7 39  1  0  0  0  0
  7 40  1  0  0  0  0
  7 41  1  0  0  0  0
  8 42  1  0  0  0  0
  8 43  1  0  0  0  0
  8 44  1  0  0  0  0
  9 45  1  0  0  0  0
  9 46  1  0  0  0  0
  9 47  1  0  0  0  0
 10 11  2  0  0  0  0
 10 12  1  0  0  0  0
 12 33  1  0  0  0  0
 13 12  1  0  0  0  0
 13 30  1  0  0  0  0
 13 48  1  0  0  0  0
 13 14  1  0  0  0  0
 14 15  2  0  0  0  0
 14 16  1  0  0  0  0
 16 49  1  0  0  0  0
 16 17  1  0  0  0  0
 17 50  1  0  0  0  0
 17 51  1  0  0  0  0
 17 18  1  0  0  0  0
 18 19  1  0  0  0  0
 18 29  2  0  0  0  0
 19 52  1  0  0  0  0
 19 20  2  0  0  0  0
 20 53  1  0  0  0  0
 20 21  1  0  0  0  0
 21 28  2  0  0  0  0
 21 22  1  0  0  0  0
 22 23  2  0  0  0  0
 22 27  1  0  0  0  0
 23 24  1  0  0  0  0
 23 25  1  0  0  0  0
 24 54  1  0  0  0  0
 24 55  1  0  0  0  0
 24 56  1  0  0  0  0
 25 26  2  0  0  0  0
 26 57  1  0  0  0  0
 26 27  1  0  0  0  0
 28 58  1  0  0  0  0
 28 29  1  0  0  0  0
 29 59  1  0  0  0  0
 31 30  1  0  0  0  0
 30 60  1  0  0  0  0
 30 61  1  0  0  0  0
 31 33  1  0  0  0  0
 31 62  1  0  0  0  0
 31 32  1  0  0  0  0
 32 63  1  0  0  0  0
 33 64  1  0  0  0  0
 33 65  1  0  0  0  0
M  ZZC   1 c1
M  ZZC   2 c2
M  ZZC   3 o1
M  ZZC   4 n1
M  ZZC   5 c3
M  ZZC   6 c4
M  ZZC   7 c5
M  ZZC   8 c6
M  ZZC   9 c7
M  ZZC  10 c8
M  ZZC  11 o2
M  ZZC  12 n2
M  ZZC  13 c9
M  ZZC  14 c10
M  ZZC  15 o3
M  ZZC  16 n3
M  ZZC  17 c11
M  ZZC  18 c12
M  ZZC  19 c13
M  ZZC  20 c14
M  ZZC  21 c15
M  ZZC  22 c16
M  ZZC  23 c17
M  ZZC  24 c18
M  ZZC  25 n4
M  ZZC  26 c19
M  ZZC  27 s1
M  ZZC  28 c20
M  ZZC  29 c21
M  ZZC  30 c22
M  ZZC  31 c23
M  ZZC  32 o4
M  ZZC  33 c24
M  ZZC  34 h11
M  ZZC  35 h12
M  ZZC  36 h13
M  ZZC  37 h01
M  ZZC  38 h31
M  ZZC  39 h51
M  ZZC  40 h52
M  ZZC  41 h53
M  ZZC  42 h61
M  ZZC  43 h62
M  ZZC  44 h63
M  ZZC  45 h71
M  ZZC  46 h72
M  ZZC  47 h73
M  ZZC  48 h91
M  ZZC  49 h02
M  ZZC  50 h111
M  ZZC  51 h112
M  ZZC  52 h131
M  ZZC  53 h141
M  ZZC  54 h181
M  ZZC  55 h182
M  ZZC  56 h183
M  ZZC  57 h191
M  ZZC  58 h201
M  ZZC  59 h211
M  ZZC  60 h221
M  ZZC  61 h222
M  ZZC  62 h231
M  ZZC  63 h41
M  ZZC  64 h241
M  ZZC  65 h242
M  ZZM   1 1
M  ZZI   1 111
M  ZZM   2 3
M  ZZI   2 121
M  ZZM   3 7
M  ZZI   3 81
M  ZZM   4 10
M  ZZI   4 211
M  ZZM   5 1
M  ZZI   5 113
M  ZZM   6 1
M  ZZI   6 110
M  ZZM   7 1
M  ZZI   7 111
M  ZZM   8 1
M  ZZI   8 111
M  ZZM   9 1
M  ZZI   9 111
M  ZZM  10 3
M  ZZI  10 121
M  ZZM  11 7
M  ZZI  11 81
M  ZZM  12 10
M  ZZI  12 192
M  ZZM  13 1
M  ZZI  13 113
M  ZZM  14 3
M  ZZI  14 121
M  ZZM  15 7
M  ZZI  15 81
M  ZZM  16 10
M  ZZI  16 211
M  ZZM  17 1
M  ZZI  17 112
M  ZZM  18 37
M  ZZI  18 124
M  ZZM  19 37
M  ZZI  19 125
M  ZZM  20 37
M  ZZI  20 125
M  ZZM  21 37
M  ZZI  21 124
M  ZZM  22 63
M  ZZI  22 104
M  ZZM  23 64
M  ZZI  23 105
M  ZZM  24 1
M  ZZI  24 111
M  ZZM  25 66
M  ZZI  25 222
M  ZZM  26 63
M  ZZI  26 104
M  ZZM  27 44
M  ZZI  27 248
M  ZZM  28 37
M  ZZI  28 125
M  ZZM  29 37
M  ZZI  29 125
M  ZZM  30 1
M  ZZI  30 112
M  ZZM  31 1
M  ZZI  31 113
M  ZZM  32 6
M  ZZI  32 60
M  ZZM  33 1
M  ZZI  33 112
M  ZZM  34 5
M  ZZI  34 1
M  ZZM  35 5
M  ZZI  35 1
M  ZZM  36 5
M  ZZI  36 1
M  ZZM  37 28
M  ZZI  37 11
M  ZZM  38 5
M  ZZI  38 1
M  ZZM  39 5
M  ZZI  39 1
M  ZZM  40 5
M  ZZI  40 1
M  ZZM  41 5
M  ZZI  41 1
M  ZZM  42 5
M  ZZI  42 1
M  ZZM  43 5
M  ZZI  43 1
M  ZZM  44 5
M  ZZI  44 1
M  ZZM  45 5
M  ZZI  45 1
M  ZZM  46 5
M  ZZI  46 1
M  ZZM  47 5
M  ZZI  47 1
M  ZZM  48 5
M  ZZI  48 1
M  ZZM  49 28
M  ZZI  49 11
M  ZZM  50 5
M  ZZI  50 1
M  ZZM  51 5
M  ZZI  51 1
M  ZZM  52 5
M  ZZI  52 1
M  ZZM  53 5
M  ZZI  53 1
M  ZZM  54 5
M  ZZI  54 1
M  ZZM  55 5
M  ZZI  55 1
M  ZZM  56 5
M  ZZI  56 1
M  ZZM  57 5
M  ZZI  57 1
M  ZZM  58 5
M  ZZI  58 1
M  ZZM  59 5
M  ZZI  59 1
M  ZZM  60 5
M  ZZI  60 1
M  ZZM  61 5
M  ZZI  61 1
M  ZZM  62 5
M  ZZI  62 1
M  ZZM  63 21
M  ZZI  63 20
M  ZZM  64 5
M  ZZI  64 1
M  ZZM  65 5
M  ZZI  65 1
M  END
> <IX>
1

> <NAME>
VHL_6SD9_1.pdb

> <Score>
-11.469969

> <Natom>
65

> <Nflex>
8

> <Hbond>
-4.959133

> <Hphob>
-6.516405

> <VwInt>
-28.042654

> <Dsolv>
16.889206

> <SolEl>
17.148751

> <Eintl>
7.833672

> <RecConf>
ND

> <projPath>
VHL_maps/

> <NAME_>
VHL_6SD9_1.pdb

$$$$
