VHL_5T8E_6.pdb
  MOLSOFT 04032206453D

 75 78  0  0  1  0  0  0  0  0999 V2000
   18.6086   -7.3182   -5.9100 C   0  0  0  0  0  0  0  0  0  0  0  0
   17.5215   -7.4453   -4.8607 C   0  0  0  0  0  0  0  0  0  0  0  0
   16.5732   -6.2611   -4.8949 C   0  0  0  0  0  0  0  0  0  0  0  0
   17.2758   -4.9882   -4.7953 N   0  0  0  0  0  0  0  0  0  0  0  0
   16.7996   -3.8720   -4.1059 C   0  0  0  0  0  0  0  0  0  0  0  0
   17.4804   -2.8757   -3.9034 O   0  0  0  0  0  0  0  0  0  0  0  0
   15.3548   -3.9587   -3.6412 C   0  0  0  0  0  0  0  0  0  0  0  0
   14.6761   -2.6115   -3.3464 C   0  0  2  0  0  0  0  0  0  0  0  0
   15.1970   -1.5076   -4.1379 N   0  0  0  0  0  0  0  0  0  0  0  0
   14.9047   -1.2461   -5.4696 C   0  0  0  0  0  0  0  0  0  0  0  0
   14.1271   -1.9122   -6.1414 O   0  0  0  0  0  0  0  0  0  0  0  0
   15.6449   -0.0015   -5.9942 C   0  0  2  0  0  0  0  0  0  0  0  0
   14.9708    1.1895   -5.4929 N   0  0  0  0  0  0  0  0  0  0  0  0
   15.1833    1.6590   -4.1955 C   0  0  0  0  0  0  0  0  0  0  0  0
   16.0067    1.1373   -3.4547 O   0  0  0  0  0  0  0  0  0  0  0  0
   14.3261    2.8394   -3.7355 C   0  0  2  0  0  0  0  0  0  0  0  0
   15.0418    4.1977   -3.9400 C   0  0  0  0  0  0  0  0  0  0  0  0
   16.3125    4.3874   -3.1074 C   0  0  0  0  0  0  0  0  0  0  0  0
   14.0886    5.3683   -3.6923 C   0  0  0  0  0  0  0  0  0  0  0  0
   13.8419    2.5850   -2.3424 C   0  0  0  0  0  0  0  0  0  0  0  0
   12.4890    2.5529   -2.1912 O   0  0  0  0  0  0  0  0  0  0  0  0
   12.1732    2.3373   -0.8507 N   0  0  0  0  0  0  0  0  0  0  0  0
   13.3496    2.2246   -0.2200 C   0  0  0  0  0  0  0  0  0  0  0  0
   13.4072    2.0145    1.2448 C   0  0  0  0  0  0  0  0  0  0  0  0
   14.4293    2.3594   -1.1191 C   0  0  0  0  0  0  0  0  0  0  0  0
   14.0992    1.7650   -6.4980 C   0  0  0  0  0  0  0  0  0  0  0  0
   14.4577    1.0885   -7.8151 C   0  0  1  0  0  0  0  0  0  0  0  0
   14.8473    2.0649   -8.7914 O   0  0  0  0  0  0  0  0  0  0  0  0
   15.6303    0.1634   -7.5090 C   0  0  0  0  0  0  0  0  0  0  0  0
   14.6672   -2.2608   -1.8701 C   0  0  0  0  0  0  0  0  0  0  0  0
   15.7322   -2.5537   -1.0120 C   0  0  0  0  0  0  0  0  0  0  0  0
   15.6596   -2.2552    0.3378 C   0  0  0  0  0  0  0  0  0  0  0  0
   14.5289   -1.6481    0.8413 C   0  0  0  0  0  0  0  0  0  0  0  0
   14.4522   -1.3688    2.1521 F   0  0  0  0  0  0  0  0  0  0  0  0
   13.4770   -1.3199    0.0135 C   0  0  0  0  0  0  0  0  0  0  0  0
   13.5525   -1.6174   -1.3342 C   0  0  0  0  0  0  0  0  0  0  0  0
   18.3920   -4.8038   -5.7092 C   0  0  0  0  0  0  0  0  0  0  0  0
   19.3351   -5.9934   -5.7939 C   0  0  0  0  0  0  0  0  0  0  0  0
   19.3313   -8.1288   -5.7919 H   0  0  0  0  0  0  0  0  0  0  0  0
   18.1668   -7.4143   -6.9039 H   0  0  0  0  0  0  0  0  0  0  0  0
   16.9678   -8.3756   -5.0167 H   0  0  0  0  0  0  0  0  0  0  0  0
   17.9769   -7.5063   -3.8706 H   0  0  0  0  0  0  0  0  0  0  0  0
   16.0119   -6.2617   -5.8323 H   0  0  0  0  0  0  0  0  0  0  0  0
   15.8622   -6.3491   -4.0745 H   0  0  0  0  0  0  0  0  0  0  0  0
   14.7922   -4.4159   -4.4505 H   0  0  0  0  0  0  0  0  0  0  0  0
   15.2819   -4.6438   -2.7890 H   0  0  0  0  0  0  0  0  0  0  0  0
   13.6300   -2.7371   -3.6483 H   0  0  0  0  0  0  0  0  0  0  0  0
   15.8600   -0.8899   -3.6717 H   0  0  0  0  0  0  0  0  0  0  0  0
   16.6768   -0.0384   -5.6240 H   0  0  0  0  0  0  0  0  0  0  0  0
   13.4311    2.8547   -4.3624 H   0  0  0  0  0  0  0  0  0  0  0  0
   15.3508    4.2527   -4.9893 H   0  0  0  0  0  0  0  0  0  0  0  0
   16.0987    4.4574   -2.0375 H   0  0  0  0  0  0  0  0  0  0  0  0
   16.8189    5.3149   -3.3919 H   0  0  0  0  0  0  0  0  0  0  0  0
   17.0257    3.5737   -3.2631 H   0  0  0  0  0  0  0  0  0  0  0  0
   14.5657    6.3203   -3.9438 H   0  0  0  0  0  0  0  0  0  0  0  0
   13.7737    5.4244   -2.6456 H   0  0  0  0  0  0  0  0  0  0  0  0
   13.1900    5.2812   -4.3092 H   0  0  0  0  0  0  0  0  0  0  0  0
   12.4606    1.6260    1.6323 H   0  0  0  0  0  0  0  0  0  0  0  0
   13.6239    2.9544    1.7599 H   0  0  0  0  0  0  0  0  0  0  0  0
   14.1948    1.3041    1.5071 H   0  0  0  0  0  0  0  0  0  0  0  0
   15.4863    2.3102   -0.9008 H   0  0  0  0  0  0  0  0  0  0  0  0
   13.0669    1.5317   -6.2159 H   0  0  0  0  0  0  0  0  0  0  0  0
   14.2141    2.8528   -6.5307 H   0  0  0  0  0  0  0  0  0  0  0  0
   13.6058    0.5248   -8.2040 H   0  0  0  0  0  0  0  0  0  0  0  0
   14.0436    2.5504   -9.0527 H   0  0  0  0  0  0  0  0  0  0  0  0
   16.5665    0.6249   -7.8428 H   0  0  0  0  0  0  0  0  0  0  0  0
   15.5476   -0.7887   -8.0432 H   0  0  0  0  0  0  0  0  0  0  0  0
   16.6356   -3.0276   -1.3822 H   0  0  0  0  0  0  0  0  0  0  0  0
   16.4835   -2.4975    1.0002 H   0  0  0  0  0  0  0  0  0  0  0  0
   12.5940   -0.8405    0.4220 H   0  0  0  0  0  0  0  0  0  0  0  0
   12.7149   -1.3542   -1.9707 H   0  0  0  0  0  0  0  0  0  0  0  0
   17.9361   -4.6357   -6.6783 H   0  0  0  0  0  0  0  0  0  0  0  0
   18.9414   -3.8896   -5.4754 H   0  0  0  0  0  0  0  0  0  0  0  0
   19.9465   -6.0251   -4.8969 H   0  0  0  0  0  0  0  0  0  0  0  0
   20.0242   -5.8657   -6.6345 H   0  0  0  0  0  0  0  0  0  0  0  0
  1 39  1  0  0  0  0
  1 40  1  0  0  0  0
  1  2  1  0  0  0  0
  1 38  1  0  0  0  0
  2 41  1  0  0  0  0
  2 42  1  0  0  0  0
  2  3  1  0  0  0  0
  3 43  1  0  0  0  0
  3 44  1  0  0  0  0
  3  4  1  0  0  0  0
  4 37  1  0  0  0  0
  4  5  1  0  0  0  0
  5  6  2  0  0  0  0
  5  7  1  0  0  0  0
  7 45  1  0  0  0  0
  7 46  1  0  0  0  0
  8  7  1  0  0  0  0
  8 47  1  0  0  0  0
  8 30  1  0  0  0  0
  8  9  1  0  0  0  0
  9 48  1  0  0  0  0
  9 10  1  0  0  0  0
 10 11  2  0  0  0  0
 12 10  1  0  0  0  0
 12 49  1  0  0  0  0
 12 29  1  0  0  0  0
 12 13  1  0  0  0  0
 13 26  1  0  0  0  0
 13 14  1  0  0  0  0
 14 15  2  0  0  0  0
 16 14  1  0  0  0  0
 16 50  1  0  0  0  0
 16 17  1  0  0  0  0
 16 20  1  0  0  0  0
 17 51  1  0  0  0  0
 17 19  1  0  0  0  0
 17 18  1  0  0  0  0
 18 52  1  0  0  0  0
 18 53  1  0  0  0  0
 18 54  1  0  0  0  0
 19 55  1  0  0  0  0
 19 56  1  0  0  0  0
 19 57  1  0  0  0  0
 20 25  2  0  0  0  0
 20 21  1  0  0  0  0
 21 22  1  0  0  0  0
 22 23  2  0  0  0  0
 23 25  1  0  0  0  0
 23 24  1  0  0  0  0
 24 58  1  0  0  0  0
 24 59  1  0  0  0  0
 24 60  1  0  0  0  0
 25 61  1  0  0  0  0
 27 26  1  0  0  0  0
 26 62  1  0  0  0  0
 26 63  1  0  0  0  0
 27 29  1  0  0  0  0
 27 64  1  0  0  0  0
 27 28  1  0  0  0  0
 28 65  1  0  0  0  0
 29 66  1  0  0  0  0
 29 67  1  0  0  0  0
 30 31  1  0  0  0  0
 30 36  2  0  0  0  0
 31 68  1  0  0  0  0
 31 32  2  0  0  0  0
 32 69  1  0  0  0  0
 32 33  1  0  0  0  0
 33 34  1  0  0  0  0
 33 35  2  0  0  0  0
 35 70  1  0  0  0  0
 35 36  1  0  0  0  0
 36 71  1  0  0  0  0
 37 72  1  0  0  0  0
 37 73  1  0  0  0  0
 37 38  1  0  0  0  0
 38 74  1  0  0  0  0
 38 75  1  0  0  0  0
M  ZZC   1 c1
M  ZZC   2 c2
M  ZZC   3 c3
M  ZZC   4 n1
M  ZZC   5 c4
M  ZZC   6 o1
M  ZZC   7 c5
M  ZZC   8 c6
M  ZZC   9 n2
M  ZZC  10 c7
M  ZZC  11 o2
M  ZZC  12 c8
M  ZZC  13 n3
M  ZZC  14 c9
M  ZZC  15 o3
M  ZZC  16 c10
M  ZZC  17 c11
M  ZZC  18 c12
M  ZZC  19 c13
M  ZZC  20 c14
M  ZZC  21 o4
M  ZZC  22 n4
M  ZZC  23 c15
M  ZZC  24 c16
M  ZZC  25 c17
M  ZZC  26 c18
M  ZZC  27 c19
M  ZZC  28 o5
M  ZZC  29 c20
M  ZZC  30 c21
M  ZZC  31 c22
M  ZZC  32 c23
M  ZZC  33 c24
M  ZZC  34 f1
M  ZZC  35 c25
M  ZZC  36 c26
M  ZZC  37 c27
M  ZZC  38 c28
M  ZZC  39 h11
M  ZZC  40 h12
M  ZZC  41 h21
M  ZZC  42 h22
M  ZZC  43 h31
M  ZZC  44 h32
M  ZZC  45 h51
M  ZZC  46 h52
M  ZZC  47 h61
M  ZZC  48 h01
M  ZZC  49 h81
M  ZZC  50 h101
M  ZZC  51 h111
M  ZZC  52 h121
M  ZZC  53 h122
M  ZZC  54 h123
M  ZZC  55 h131
M  ZZC  56 h132
M  ZZC  57 h133
M  ZZC  58 h161
M  ZZC  59 h162
M  ZZC  60 h163
M  ZZC  61 h171
M  ZZC  62 h181
M  ZZC  63 h182
M  ZZC  64 h191
M  ZZC  65 h02
M  ZZC  66 h201
M  ZZC  67 h202
M  ZZC  68 h221
M  ZZC  69 h231
M  ZZC  70 h251
M  ZZC  71 h261
M  ZZC  72 h271
M  ZZC  73 h272
M  ZZC  74 h281
M  ZZC  75 h282
M  ZZM   1 1
M  ZZI   1 112
M  ZZM   2 1
M  ZZI   2 112
M  ZZM   3 1
M  ZZI   3 112
M  ZZM   4 10
M  ZZI   4 192
M  ZZM   5 3
M  ZZI   5 121
M  ZZM   6 7
M  ZZI   6 81
M  ZZM   7 1
M  ZZI   7 112
M  ZZM   8 1
M  ZZI   8 113
M  ZZM   9 10
M  ZZI   9 211
M  ZZM  10 3
M  ZZI  10 121
M  ZZM  11 7
M  ZZI  11 81
M  ZZM  12 1
M  ZZI  12 113
M  ZZM  13 10
M  ZZI  13 192
M  ZZM  14 3
M  ZZI  14 121
M  ZZM  15 7
M  ZZI  15 81
M  ZZM  16 1
M  ZZI  16 113
M  ZZM  17 1
M  ZZI  17 113
M  ZZM  18 1
M  ZZI  18 111
M  ZZM  19 1
M  ZZI  19 111
M  ZZM  20 63
M  ZZI  20 104
M  ZZM  21 59
M  ZZI  21 56
M  ZZM  22 65
M  ZZI  22 207
M  ZZM  23 64
M  ZZI  23 105
M  ZZM  24 1
M  ZZI  24 111
M  ZZM  25 64
M  ZZI  25 105
M  ZZM  26 1
M  ZZI  26 112
M  ZZM  27 1
M  ZZI  27 113
M  ZZM  28 6
M  ZZI  28 60
M  ZZM  29 1
M  ZZI  29 112
M  ZZM  30 37
M  ZZI  30 124
M  ZZM  31 37
M  ZZI  31 125
M  ZZM  32 37
M  ZZI  32 125
M  ZZM  33 37
M  ZZI  33 124
M  ZZM  34 11
M  ZZI  34 90
M  ZZM  35 37
M  ZZI  35 125
M  ZZM  36 37
M  ZZI  36 125
M  ZZM  37 1
M  ZZI  37 112
M  ZZM  38 1
M  ZZI  38 112
M  ZZM  39 5
M  ZZI  39 1
M  ZZM  40 5
M  ZZI  40 1
M  ZZM  41 5
M  ZZI  41 1
M  ZZM  42 5
M  ZZI  42 1
M  ZZM  43 5
M  ZZI  43 1
M  ZZM  44 5
M  ZZI  44 1
M  ZZM  45 5
M  ZZI  45 1
M  ZZM  46 5
M  ZZI  46 1
M  ZZM  47 5
M  ZZI  47 1
M  ZZM  48 28
M  ZZI  48 11
M  ZZM  49 5
M  ZZI  49 1
M  ZZM  50 5
M  ZZI  50 1
M  ZZM  51 5
M  ZZI  51 1
M  ZZM  52 5
M  ZZI  52 1
M  ZZM  53 5
M  ZZI  53 1
M  ZZM  54 5
M  ZZI  54 1
M  ZZM  55 5
M  ZZI  55 1
M  ZZM  56 5
M  ZZI  56 1
M  ZZM  57 5
M  ZZI  57 1
M  ZZM  58 5
M  ZZI  58 1
M  ZZM  59 5
M  ZZI  59 1
M  ZZM  60 5
M  ZZI  60 1
M  ZZM  61 5
M  ZZI  61 1
M  ZZM  62 5
M  ZZI  62 1
M  ZZM  63 5
M  ZZI  63 1
M  ZZM  64 5
M  ZZI  64 1
M  ZZM  65 21
M  ZZI  65 20
M  ZZM  66 5
M  ZZI  66 1
M  ZZM  67 5
M  ZZI  67 1
M  ZZM  68 5
M  ZZI  68 1
M  ZZM  69 5
M  ZZI  69 1
M  ZZM  70 5
M  ZZI  70 1
M  ZZM  71 5
M  ZZI  71 1
M  ZZM  72 5
M  ZZI  72 1
M  ZZM  73 5
M  ZZI  73 1
M  ZZM  74 5
M  ZZI  74 1
M  ZZM  75 5
M  ZZI  75 1
M  END
> <IX>
1

> <NAME>
VHL_5T8E_6.pdb

> <Score>
-6.313926

> <Natom>
75

> <Nflex>
11

> <Hbond>
-4.451414

> <Hphob>
-6.866242

> <VwInt>
-24.253904

> <Dsolv>
16.449454

> <SolEl>
14.07533

> <Eintl>
9.292716

> <RecConf>
ND

> <projPath>
VHL_maps/

> <NAME_>
VHL_5T8E_6.pdb

$$$$
