VHL_6VS3_13.pdb
  MOLSOFT 04032206423D

 61 63  0  0  1  0  0  0  0  0999 V2000
   16.8907   -4.8719   -4.4570 N   0  3  0  0  0  0  0  0  0  0  0  0
   16.1157   -3.5976   -4.1729 C   0  0  1  0  0  0  0  0  0  0  0  0
   15.8417   -3.4287   -2.6458 C   0  0  0  0  0  0  0  0  0  0  0  0
   14.8033   -2.3245   -2.3978 C   0  0  0  0  0  0  0  0  0  0  0  0
   15.2623   -4.7292   -2.0699 C   0  0  0  0  0  0  0  0  0  0  0  0
   17.1069   -3.0634   -1.8578 C   0  0  0  0  0  0  0  0  0  0  0  0
   16.8676   -2.4281   -4.8269 C   0  0  0  0  0  0  0  0  0  0  0  0
   18.0858   -2.3600   -4.7477 O   0  0  0  0  0  0  0  0  0  0  0  0
   16.1413   -1.4837   -5.5463 N   0  0  0  0  0  0  0  0  0  0  0  0
   16.8390   -0.4708   -6.3262 C   0  0  2  0  0  0  0  0  0  0  0  0
   17.4407    0.6202   -5.4419 C   0  0  0  0  0  0  0  0  0  0  0  0
   17.0499    0.8418   -4.3035 O   0  0  0  0  0  0  0  0  0  0  0  0
   18.3959    1.3778   -6.0969 N   0  0  0  0  0  0  0  0  0  0  0  0
   18.7960    2.6851   -5.6132 C   0  0  0  0  0  0  0  0  0  0  0  0
   17.7854    3.6960   -6.0863 C   0  0  0  0  0  0  0  0  0  0  0  0
   16.5619    3.7974   -5.4326 C   0  0  0  0  0  0  0  0  0  0  0  0
   15.5137    4.4800   -6.0084 C   0  0  0  0  0  0  0  0  0  0  0  0
   15.6812    5.1143   -7.2288 C   0  0  0  0  0  0  0  0  0  0  0  0
   14.5160    5.6507   -7.8972 C   0  0  0  0  0  0  0  0  0  0  0  0
   13.4769    4.9733   -8.5195 C   0  0  0  0  0  0  0  0  0  0  0  0
   13.3653    3.5092   -8.7290 C   0  0  0  0  0  0  0  0  0  0  0  0
   12.4451    5.7756   -8.9498 N   0  0  0  0  0  0  0  0  0  0  0  0
   12.7450    7.0320   -8.7039 C   0  0  0  0  0  0  0  0  0  0  0  0
   14.2406    7.3399   -7.9486 S   0  0  0  0  0  0  0  0  0  0  0  0
   16.9402    5.1458   -7.8161 C   0  0  0  0  0  0  0  0  0  0  0  0
   17.9828    4.4239   -7.2567 C   0  0  0  0  0  0  0  0  0  0  0  0
   15.7786    0.0954   -7.2664 C   0  0  0  0  0  0  0  0  0  0  0  0
   14.4880   -0.1008   -6.4923 C   0  0  1  0  0  0  0  0  0  0  0  0
   13.3691   -0.1475   -7.3742 O   0  0  0  0  0  0  0  0  0  0  0  0
   14.7182   -1.4373   -5.8079 C   0  0  0  0  0  0  0  0  0  0  0  0
   17.0280   -4.9942   -5.4690 H   0  0  0  0  0  0  0  0  0  0  0  0
   16.4269   -5.7273   -4.1203 H   0  0  0  0  0  0  0  0  0  0  0  0
   17.8416   -4.8409   -4.0563 H   0  0  0  0  0  0  0  0  0  0  0  0
   15.1607   -3.7420   -4.6766 H   0  0  0  0  0  0  0  0  0  0  0  0
   15.1542   -1.3543   -2.7648 H   0  0  0  0  0  0  0  0  0  0  0  0
   14.5980   -2.2041   -1.3295 H   0  0  0  0  0  0  0  0  0  0  0  0
   13.8571   -2.5310   -2.9063 H   0  0  0  0  0  0  0  0  0  0  0  0
   14.9463   -4.5941   -1.0322 H   0  0  0  0  0  0  0  0  0  0  0  0
   15.9932   -5.5399   -2.0755 H   0  0  0  0  0  0  0  0  0  0  0  0
   14.3903   -5.0673   -2.6387 H   0  0  0  0  0  0  0  0  0  0  0  0
   16.9156   -3.0448   -0.7799 H   0  0  0  0  0  0  0  0  0  0  0  0
   17.4894   -2.0752   -2.1317 H   0  0  0  0  0  0  0  0  0  0  0  0
   17.9045   -3.7828   -2.0304 H   0  0  0  0  0  0  0  0  0  0  0  0
   17.6432   -0.9437   -6.8878 H   0  0  0  0  0  0  0  0  0  0  0  0
   18.7290    1.0795   -7.0088 H   0  0  0  0  0  0  0  0  0  0  0  0
   18.8581    2.6780   -4.5193 H   0  0  0  0  0  0  0  0  0  0  0  0
   19.7936    2.9030   -6.0085 H   0  0  0  0  0  0  0  0  0  0  0  0
   16.3873    3.2694   -4.4999 H   0  0  0  0  0  0  0  0  0  0  0  0
   14.5437    4.4725   -5.5180 H   0  0  0  0  0  0  0  0  0  0  0  0
   12.4778    3.2689   -9.3213 H   0  0  0  0  0  0  0  0  0  0  0  0
   13.2754    2.9782   -7.7774 H   0  0  0  0  0  0  0  0  0  0  0  0
   14.2434    3.1189   -9.2501 H   0  0  0  0  0  0  0  0  0  0  0  0
   12.0860    7.8440   -8.9529 H   0  0  0  0  0  0  0  0  0  0  0  0
   17.1000    5.6851   -8.7457 H   0  0  0  0  0  0  0  0  0  0  0  0
   18.9371    4.3868   -7.7738 H   0  0  0  0  0  0  0  0  0  0  0  0
   15.9346    1.1425   -7.5458 H   0  0  0  0  0  0  0  0  0  0  0  0
   15.7481   -0.4790   -8.2003 H   0  0  0  0  0  0  0  0  0  0  0  0
   14.3491    0.7082   -5.7651 H   0  0  0  0  0  0  0  0  0  0  0  0
   12.5683    0.0458   -6.8550 H   0  0  0  0  0  0  0  0  0  0  0  0
   14.4800   -2.2685   -6.4739 H   0  0  0  0  0  0  0  0  0  0  0  0
   14.1245   -1.5521   -4.9005 H   0  0  0  0  0  0  0  0  0  0  0  0
  1 31  1  0  0  0  0
  1 32  1  0  0  0  0
  1 33  1  0  0  0  0
  2  1  1  0  0  0  0
  2 34  1  0  0  0  0
  2  3  1  0  0  0  0
  2  7  1  0  0  0  0
  3  4  1  0  0  0  0
  3  5  1  0  0  0  0
  3  6  1  0  0  0  0
  4 35  1  0  0  0  0
  4 36  1  0  0  0  0
  4 37  1  0  0  0  0
  5 38  1  0  0  0  0
  5 39  1  0  0  0  0
  5 40  1  0  0  0  0
  6 41  1  0  0  0  0
  6 42  1  0  0  0  0
  6 43  1  0  0  0  0
  7  8  2  0  0  0  0
  7  9  1  0  0  0  0
  9 30  1  0  0  0  0
 10  9  1  0  0  0  0
 10 27  1  0  0  0  0
 10 44  1  0  0  0  0
 10 11  1  0  0  0  0
 11 12  2  0  0  0  0
 11 13  1  0  0  0  0
 13 45  1  0  0  0  0
 13 14  1  0  0  0  0
 14 46  1  0  0  0  0
 14 47  1  0  0  0  0
 14 15  1  0  0  0  0
 15 16  1  0  0  0  0
 15 26  2  0  0  0  0
 16 48  1  0  0  0  0
 16 17  2  0  0  0  0
 17 49  1  0  0  0  0
 17 18  1  0  0  0  0
 18 25  2  0  0  0  0
 18 19  1  0  0  0  0
 19 20  2  0  0  0  0
 19 24  1  0  0  0  0
 20 21  1  0  0  0  0
 20 22  1  0  0  0  0
 21 50  1  0  0  0  0
 21 51  1  0  0  0  0
 21 52  1  0  0  0  0
 22 23  2  0  0  0  0
 23 53  1  0  0  0  0
 23 24  1  0  0  0  0
 25 54  1  0  0  0  0
 25 26  1  0  0  0  0
 26 55  1  0  0  0  0
 28 27  1  0  0  0  0
 27 56  1  0  0  0  0
 27 57  1  0  0  0  0
 28 30  1  0  0  0  0
 28 58  1  0  0  0  0
 28 29  1  0  0  0  0
 29 59  1  0  0  0  0
 30 60  1  0  0  0  0
 30 61  1  0  0  0  0
M  ZZC   1 n1
M  ZZC   2 c1
M  ZZC   3 c2
M  ZZC   4 c3
M  ZZC   5 c4
M  ZZC   6 c5
M  ZZC   7 c6
M  ZZC   8 o1
M  ZZC   9 n2
M  ZZC  10 c7
M  ZZC  11 c8
M  ZZC  12 o2
M  ZZC  13 n3
M  ZZC  14 c9
M  ZZC  15 c10
M  ZZC  16 c11
M  ZZC  17 c12
M  ZZC  18 c13
M  ZZC  19 c14
M  ZZC  20 c15
M  ZZC  21 c16
M  ZZC  22 n4
M  ZZC  23 c17
M  ZZC  24 s1
M  ZZC  25 c18
M  ZZC  26 c19
M  ZZC  27 c20
M  ZZC  28 c21
M  ZZC  29 o3
M  ZZC  30 c22
M  ZZC  31 h11
M  ZZC  32 h12
M  ZZC  33 h13
M  ZZC  34 h01
M  ZZC  35 h31
M  ZZC  36 h32
M  ZZC  37 h33
M  ZZC  38 h41
M  ZZC  39 h42
M  ZZC  40 h43
M  ZZC  41 h51
M  ZZC  42 h52
M  ZZC  43 h53
M  ZZC  44 h71
M  ZZC  45 h02
M  ZZC  46 h91
M  ZZC  47 h92
M  ZZC  48 h111
M  ZZC  49 h121
M  ZZC  50 h161
M  ZZC  51 h162
M  ZZC  52 h163
M  ZZC  53 h171
M  ZZC  54 h181
M  ZZC  55 h191
M  ZZC  56 h201
M  ZZC  57 h202
M  ZZC  58 h211
M  ZZC  59 h03
M  ZZC  60 h221
M  ZZC  61 h222
M  ZZM   1 34
M  ZZI   1 231
M  ZZM   2 1
M  ZZI   2 113
M  ZZM   3 1
M  ZZI   3 110
M  ZZM   4 1
M  ZZI   4 111
M  ZZM   5 1
M  ZZI   5 111
M  ZZM   6 1
M  ZZI   6 111
M  ZZM   7 3
M  ZZI   7 121
M  ZZM   8 7
M  ZZI   8 81
M  ZZM   9 10
M  ZZI   9 192
M  ZZM  10 1
M  ZZI  10 113
M  ZZM  11 3
M  ZZI  11 121
M  ZZM  12 7
M  ZZI  12 81
M  ZZM  13 10
M  ZZI  13 211
M  ZZM  14 1
M  ZZI  14 112
M  ZZM  15 37
M  ZZI  15 124
M  ZZM  16 37
M  ZZI  16 125
M  ZZM  17 37
M  ZZI  17 125
M  ZZM  18 37
M  ZZI  18 124
M  ZZM  19 63
M  ZZI  19 104
M  ZZM  20 64
M  ZZI  20 105
M  ZZM  21 1
M  ZZI  21 111
M  ZZM  22 66
M  ZZI  22 222
M  ZZM  23 63
M  ZZI  23 104
M  ZZM  24 44
M  ZZI  24 248
M  ZZM  25 37
M  ZZI  25 125
M  ZZM  26 37
M  ZZI  26 125
M  ZZM  27 1
M  ZZI  27 112
M  ZZM  28 1
M  ZZI  28 113
M  ZZM  29 6
M  ZZI  29 60
M  ZZM  30 1
M  ZZI  30 112
M  ZZM  31 36
M  ZZI  31 17
M  ZZM  32 36
M  ZZI  32 17
M  ZZM  33 36
M  ZZI  33 17
M  ZZM  34 5
M  ZZI  34 1
M  ZZM  35 5
M  ZZI  35 1
M  ZZM  36 5
M  ZZI  36 1
M  ZZM  37 5
M  ZZI  37 1
M  ZZM  38 5
M  ZZI  38 1
M  ZZM  39 5
M  ZZI  39 1
M  ZZM  40 5
M  ZZI  40 1
M  ZZM  41 5
M  ZZI  41 1
M  ZZM  42 5
M  ZZI  42 1
M  ZZM  43 5
M  ZZI  43 1
M  ZZM  44 5
M  ZZI  44 1
M  ZZM  45 28
M  ZZI  45 11
M  ZZM  46 5
M  ZZI  46 1
M  ZZM  47 5
M  ZZI  47 1
M  ZZM  48 5
M  ZZI  48 1
M  ZZM  49 5
M  ZZI  49 1
M  ZZM  50 5
M  ZZI  50 1
M  ZZM  51 5
M  ZZI  51 1
M  ZZM  52 5
M  ZZI  52 1
M  ZZM  53 5
M  ZZI  53 1
M  ZZM  54 5
M  ZZI  54 1
M  ZZM  55 5
M  ZZI  55 1
M  ZZM  56 5
M  ZZI  56 1
M  ZZM  57 5
M  ZZI  57 1
M  ZZM  58 5
M  ZZI  58 1
M  ZZM  59 21
M  ZZI  59 20
M  ZZM  60 5
M  ZZI  60 1
M  ZZM  61 5
M  ZZI  61 1
M  CHG  1   1   1
M  END
> <IX>
1

> <NAME>
VHL_6VS3_13.pdb

> <Score>
-2.491159

> <Natom>
61

> <Nflex>
7

> <Hbond>
-5.613092

> <Hphob>
-5.963088

> <VwInt>
-25.971068

> <Dsolv>
21.531991

> <SolEl>
25.008468

> <Eintl>
8.036196

> <RecConf>
ND

> <projPath>
VHL_maps/

> <NAME_>
VHL_6VS3_13.pdb

$$$$
