VHL_3MXF_8.pdb
  MOLSOFT 04032206373D

 66 68  0  0  1  0  0  0  0  0999 V2000
   17.3927    3.0316   -5.0054 C   0  0  0  0  0  0  0  0  0  0  0  0
   15.9765    1.9317   -4.7012 S   0  0  0  0  0  0  0  0  0  0  0  0
   16.4074    0.4332   -5.7186 C   0  0  0  0  0  0  0  0  0  0  0  0
   15.3141   -0.6585   -5.5327 C   0  0  2  0  0  0  0  0  0  0  0  0
   13.9871   -0.0924   -5.7867 N   0  0  0  0  0  0  0  0  0  0  0  0
   12.9942   -0.7855   -6.4344 C   0  0  0  0  0  0  0  0  0  0  0  0
   13.1269   -1.9194   -6.8597 O   0  0  0  0  0  0  0  0  0  0  0  0
   11.7128   -0.0189   -6.5536 C   0  0  0  0  0  0  0  0  0  0  0  0
   15.2277   -1.2966   -4.1295 C   0  0  0  0  0  0  0  0  0  0  0  0
   14.6706   -0.7149   -3.2066 O   0  0  0  0  0  0  0  0  0  0  0  0
   15.7669   -2.5754   -3.9435 N   0  0  0  0  0  0  0  0  0  0  0  0
   15.5517   -3.2865   -2.6910 C   0  0  2  0  0  0  0  0  0  0  0  0
   16.5934   -2.9048   -1.6351 C   0  0  0  0  0  0  0  0  0  0  0  0
   17.6943   -2.4492   -1.9139 O   0  0  0  0  0  0  0  0  0  0  0  0
   16.1908   -3.1827   -0.3422 N   0  0  0  0  0  0  0  0  0  0  0  0
   17.0333   -2.8668    0.7952 C   0  0  0  0  0  0  0  0  0  0  0  0
   16.5589   -3.5432    2.0549 C   0  0  0  0  0  0  0  0  0  0  0  0
   17.2464   -4.6324    2.5766 C   0  0  0  0  0  0  0  0  0  0  0  0
   16.7817   -5.2915    3.7005 C   0  0  0  0  0  0  0  0  0  0  0  0
   15.6226   -4.8793    4.3560 C   0  0  0  0  0  0  0  0  0  0  0  0
   15.1195   -5.5981    5.5291 C   0  0  0  0  0  0  0  0  0  0  0  0
   13.8240   -5.9249    5.9244 C   0  0  0  0  0  0  0  0  0  0  0  0
   12.5535   -5.6253    5.2214 C   0  0  0  0  0  0  0  0  0  0  0  0
   13.7291   -6.6186    7.1147 N   0  0  0  0  0  0  0  0  0  0  0  0
   14.9268   -6.8139    7.6146 C   0  0  0  0  0  0  0  0  0  0  0  0
   16.2288   -6.1884    6.7108 S   0  0  0  0  0  0  0  0  0  0  0  0
   14.9533   -3.7687    3.8445 C   0  0  0  0  0  0  0  0  0  0  0  0
   15.4087   -3.1162    2.7100 C   0  0  0  0  0  0  0  0  0  0  0  0
   15.6660   -4.7515   -3.0725 C   0  0  0  0  0  0  0  0  0  0  0  0
   16.6900   -4.7585   -4.1969 C   0  0  1  0  0  0  0  0  0  0  0  0
   16.4519   -5.8468   -5.0928 O   0  0  0  0  0  0  0  0  0  0  0  0
   16.5167   -3.4022   -4.8807 C   0  0  0  0  0  0  0  0  0  0  0  0
   16.4473    0.8343   -7.2056 C   0  0  0  0  0  0  0  0  0  0  0  0
   17.7843   -0.0943   -5.3144 C   0  0  0  0  0  0  0  0  0  0  0  0
   17.5144    3.2449   -6.0695 H   0  0  0  0  0  0  0  0  0  0  0  0
   18.3149    2.6105   -4.5978 H   0  0  0  0  0  0  0  0  0  0  0  0
   17.2101    3.9807   -4.4955 H   0  0  0  0  0  0  0  0  0  0  0  0
   15.4733   -1.4533   -6.2669 H   0  0  0  0  0  0  0  0  0  0  0  0
   13.7726    0.8080   -5.3668 H   0  0  0  0  0  0  0  0  0  0  0  0
   11.2083   -0.0046   -5.5844 H   0  0  0  0  0  0  0  0  0  0  0  0
   11.0669   -0.4977   -7.2929 H   0  0  0  0  0  0  0  0  0  0  0  0
   11.9198    1.0042   -6.8741 H   0  0  0  0  0  0  0  0  0  0  0  0
   14.5541   -3.0571   -2.2979 H   0  0  0  0  0  0  0  0  0  0  0  0
   15.2594   -3.5445   -0.1688 H   0  0  0  0  0  0  0  0  0  0  0  0
   18.0647   -3.1529    0.5605 H   0  0  0  0  0  0  0  0  0  0  0  0
   17.0302   -1.7794    0.9260 H   0  0  0  0  0  0  0  0  0  0  0  0
   18.1478   -4.9971    2.0916 H   0  0  0  0  0  0  0  0  0  0  0  0
   17.3368   -6.1582    4.0455 H   0  0  0  0  0  0  0  0  0  0  0  0
   12.2200   -4.6048    5.4311 H   0  0  0  0  0  0  0  0  0  0  0  0
   11.7513   -6.2981    5.5318 H   0  0  0  0  0  0  0  0  0  0  0  0
   12.6835   -5.7195    4.1398 H   0  0  0  0  0  0  0  0  0  0  0  0
   15.0870   -7.3392    8.5454 H   0  0  0  0  0  0  0  0  0  0  0  0
   14.0577   -3.3916    4.3274 H   0  0  0  0  0  0  0  0  0  0  0  0
   14.8504   -2.2638    2.3330 H   0  0  0  0  0  0  0  0  0  0  0  0
   15.9635   -5.4015   -2.2443 H   0  0  0  0  0  0  0  0  0  0  0  0
   14.7029   -5.1246   -3.4353 H   0  0  0  0  0  0  0  0  0  0  0  0
   17.7050   -4.8560   -3.8014 H   0  0  0  0  0  0  0  0  0  0  0  0
   16.3728   -6.6608   -4.5617 H   0  0  0  0  0  0  0  0  0  0  0  0
   16.0105   -3.4592   -5.8455 H   0  0  0  0  0  0  0  0  0  0  0  0
   17.4917   -2.9410   -5.0514 H   0  0  0  0  0  0  0  0  0  0  0  0
   16.5804   -0.0442   -7.8464 H   0  0  0  0  0  0  0  0  0  0  0  0
   17.2787    1.5066   -7.4327 H   0  0  0  0  0  0  0  0  0  0  0  0
   15.5254    1.3280   -7.5303 H   0  0  0  0  0  0  0  0  0  0  0  0
   18.5853    0.6125   -5.5486 H   0  0  0  0  0  0  0  0  0  0  0  0
   18.0119   -1.0045   -5.8720 H   0  0  0  0  0  0  0  0  0  0  0  0
   17.8443   -0.3303   -4.2471 H   0  0  0  0  0  0  0  0  0  0  0  0
  1 35  1  0  0  0  0
  1 36  1  0  0  0  0
  1 37  1  0  0  0  0
  1  2  1  0  0  0  0
  2  3  1  0  0  0  0
  3 33  1  0  0  0  0
  3 34  1  0  0  0  0
  4  3  1  0  0  0  0
  4 38  1  0  0  0  0
  4  5  1  0  0  0  0
  4  9  1  0  0  0  0
  5 39  1  0  0  0  0
  5  6  1  0  0  0  0
  6  7  2  0  0  0  0
  6  8  1  0  0  0  0
  8 40  1  0  0  0  0
  8 41  1  0  0  0  0
  8 42  1  0  0  0  0
  9 10  2  0  0  0  0
  9 11  1  0  0  0  0
 11 32  1  0  0  0  0
 12 11  1  0  0  0  0
 12 29  1  0  0  0  0
 12 43  1  0  0  0  0
 12 13  1  0  0  0  0
 13 14  2  0  0  0  0
 13 15  1  0  0  0  0
 15 44  1  0  0  0  0
 15 16  1  0  0  0  0
 16 45  1  0  0  0  0
 16 46  1  0  0  0  0
 16 17  1  0  0  0  0
 17 18  1  0  0  0  0
 17 28  2  0  0  0  0
 18 47  1  0  0  0  0
 18 19  2  0  0  0  0
 19 48  1  0  0  0  0
 19 20  1  0  0  0  0
 20 27  2  0  0  0  0
 20 21  1  0  0  0  0
 21 22  2  0  0  0  0
 21 26  1  0  0  0  0
 22 23  1  0  0  0  0
 22 24  1  0  0  0  0
 23 49  1  0  0  0  0
 23 50  1  0  0  0  0
 23 51  1  0  0  0  0
 24 25  2  0  0  0  0
 25 52  1  0  0  0  0
 25 26  1  0  0  0  0
 27 53  1  0  0  0  0
 27 28  1  0  0  0  0
 28 54  1  0  0  0  0
 30 29  1  0  0  0  0
 29 55  1  0  0  0  0
 29 56  1  0  0  0  0
 30 32  1  0  0  0  0
 30 57  1  0  0  0  0
 30 31  1  0  0  0  0
 31 58  1  0  0  0  0
 32 59  1  0  0  0  0
 32 60  1  0  0  0  0
 33 61  1  0  0  0  0
 33 62  1  0  0  0  0
 33 63  1  0  0  0  0
 34 64  1  0  0  0  0
 34 65  1  0  0  0  0
 34 66  1  0  0  0  0
M  ZZC   1 c1
M  ZZC   2 s1
M  ZZC   3 c2
M  ZZC   4 c3
M  ZZC   5 n1
M  ZZC   6 c4
M  ZZC   7 o1
M  ZZC   8 c5
M  ZZC   9 c6
M  ZZC  10 o2
M  ZZC  11 n2
M  ZZC  12 c7
M  ZZC  13 c8
M  ZZC  14 o3
M  ZZC  15 n3
M  ZZC  16 c9
M  ZZC  17 c10
M  ZZC  18 c11
M  ZZC  19 c12
M  ZZC  20 c13
M  ZZC  21 c14
M  ZZC  22 c15
M  ZZC  23 c16
M  ZZC  24 n4
M  ZZC  25 c17
M  ZZC  26 s2
M  ZZC  27 c18
M  ZZC  28 c19
M  ZZC  29 c20
M  ZZC  30 c21
M  ZZC  31 o4
M  ZZC  32 c22
M  ZZC  33 c23
M  ZZC  34 c24
M  ZZC  35 h11
M  ZZC  36 h12
M  ZZC  37 h13
M  ZZC  38 h31
M  ZZC  39 h01
M  ZZC  40 h51
M  ZZC  41 h52
M  ZZC  42 h53
M  ZZC  43 h71
M  ZZC  44 h02
M  ZZC  45 h91
M  ZZC  46 h92
M  ZZC  47 h111
M  ZZC  48 h121
M  ZZC  49 h161
M  ZZC  50 h162
M  ZZC  51 h163
M  ZZC  52 h171
M  ZZC  53 h181
M  ZZC  54 h191
M  ZZC  55 h201
M  ZZC  56 h202
M  ZZC  57 h211
M  ZZC  58 h41
M  ZZC  59 h221
M  ZZC  60 h222
M  ZZC  61 h231
M  ZZC  62 h232
M  ZZC  63 h233
M  ZZC  64 h241
M  ZZC  65 h242
M  ZZC  66 h243
M  ZZM   1 1
M  ZZI   1 111
M  ZZM   2 15
M  ZZI   2 253
M  ZZM   3 1
M  ZZI   3 110
M  ZZM   4 1
M  ZZI   4 113
M  ZZM   5 10
M  ZZI   5 211
M  ZZM   6 3
M  ZZI   6 121
M  ZZM   7 7
M  ZZI   7 81
M  ZZM   8 1
M  ZZI   8 111
M  ZZM   9 3
M  ZZI   9 121
M  ZZM  10 7
M  ZZI  10 81
M  ZZM  11 10
M  ZZI  11 192
M  ZZM  12 1
M  ZZI  12 113
M  ZZM  13 3
M  ZZI  13 121
M  ZZM  14 7
M  ZZI  14 81
M  ZZM  15 10
M  ZZI  15 211
M  ZZM  16 1
M  ZZI  16 112
M  ZZM  17 37
M  ZZI  17 124
M  ZZM  18 37
M  ZZI  18 125
M  ZZM  19 37
M  ZZI  19 125
M  ZZM  20 37
M  ZZI  20 124
M  ZZM  21 63
M  ZZI  21 104
M  ZZM  22 64
M  ZZI  22 105
M  ZZM  23 1
M  ZZI  23 111
M  ZZM  24 66
M  ZZI  24 222
M  ZZM  25 63
M  ZZI  25 104
M  ZZM  26 44
M  ZZI  26 248
M  ZZM  27 37
M  ZZI  27 125
M  ZZM  28 37
M  ZZI  28 125
M  ZZM  29 1
M  ZZI  29 112
M  ZZM  30 1
M  ZZI  30 113
M  ZZM  31 6
M  ZZI  31 60
M  ZZM  32 1
M  ZZI  32 112
M  ZZM  33 1
M  ZZI  33 111
M  ZZM  34 1
M  ZZI  34 111
M  ZZM  35 5
M  ZZI  35 1
M  ZZM  36 5
M  ZZI  36 1
M  ZZM  37 5
M  ZZI  37 1
M  ZZM  38 5
M  ZZI  38 1
M  ZZM  39 28
M  ZZI  39 11
M  ZZM  40 5
M  ZZI  40 1
M  ZZM  41 5
M  ZZI  41 1
M  ZZM  42 5
M  ZZI  42 1
M  ZZM  43 5
M  ZZI  43 1
M  ZZM  44 28
M  ZZI  44 11
M  ZZM  45 5
M  ZZI  45 1
M  ZZM  46 5
M  ZZI  46 1
M  ZZM  47 5
M  ZZI  47 1
M  ZZM  48 5
M  ZZI  48 1
M  ZZM  49 5
M  ZZI  49 1
M  ZZM  50 5
M  ZZI  50 1
M  ZZM  51 5
M  ZZI  51 1
M  ZZM  52 5
M  ZZI  52 1
M  ZZM  53 5
M  ZZI  53 1
M  ZZM  54 5
M  ZZI  54 1
M  ZZM  55 5
M  ZZI  55 1
M  ZZM  56 5
M  ZZI  56 1
M  ZZM  57 5
M  ZZI  57 1
M  ZZM  58 21
M  ZZI  58 20
M  ZZM  59 5
M  ZZI  59 1
M  ZZM  60 5
M  ZZI  60 1
M  ZZM  61 5
M  ZZI  61 1
M  ZZM  62 5
M  ZZI  62 1
M  ZZM  63 5
M  ZZI  63 1
M  ZZM  64 5
M  ZZI  64 1
M  ZZM  65 5
M  ZZI  65 1
M  ZZM  66 5
M  ZZI  66 1
M  END
> <IX>
1

> <NAME>
VHL_3MXF_8.pdb

> <Score>
-14.345537

> <Natom>
66

> <Nflex>
9

> <Hbond>
-3.004486

> <Hphob>
-6.05379

> <VwInt>
-28.603064

> <Dsolv>
16.66867

> <SolEl>
9.806325

> <Eintl>
2.56873

> <RecConf>
ND

> <projPath>
VHL_maps/

> <NAME_>
VHL_3MXF_8.pdb

$$$$
