VHL_5T8E_46.pdb
  MOLSOFT 04032206433D

 68 70  0  0  1  0  0  0  0  0999 V2000
   18.0931   -6.7939   -5.1532 C   0  0  0  0  0  0  0  0  0  0  0  0
   16.8897   -5.9024   -5.0194 C   0  0  0  0  0  0  0  0  0  0  0  0
   15.8093   -6.2352   -5.4750 O   0  0  0  0  0  0  0  0  0  0  0  0
   17.1410   -4.7402   -4.3179 N   0  0  0  0  0  0  0  0  0  0  0  0
   16.1512   -3.6814   -4.0599 C   0  0  1  0  0  0  0  0  0  0  0  0
   15.8709   -3.5084   -2.5376 C   0  0  0  0  0  0  0  0  0  0  0  0
   14.7636   -2.4888   -2.2483 C   0  0  0  0  0  0  0  0  0  0  0  0
   15.3818   -4.8542   -1.9912 C   0  0  0  0  0  0  0  0  0  0  0  0
   17.1166   -3.0616   -1.7595 C   0  0  0  0  0  0  0  0  0  0  0  0
   16.7107   -2.4489   -4.7972 C   0  0  0  0  0  0  0  0  0  0  0  0
   17.9152   -2.2245   -4.8158 O   0  0  0  0  0  0  0  0  0  0  0  0
   15.8122   -1.6184   -5.4714 N   0  0  0  0  0  0  0  0  0  0  0  0
   16.2892   -0.6551   -6.4509 C   0  0  2  0  0  0  0  0  0  0  0  0
   16.7958    0.6259   -5.7837 C   0  0  0  0  0  0  0  0  0  0  0  0
   16.4003    0.9997   -4.6877 O   0  0  0  0  0  0  0  0  0  0  0  0
   17.7065    1.3258   -6.5593 N   0  0  0  0  0  0  0  0  0  0  0  0
   18.3339    2.5647   -6.1159 C   0  0  1  0  0  0  0  0  0  0  0  0
   19.7172    2.7096   -6.7554 C   0  0  0  0  0  0  0  0  0  0  0  0
   17.4280    3.7643   -6.3509 C   0  0  0  0  0  0  0  0  0  0  0  0
   17.4945    4.5530   -7.4998 C   0  0  0  0  0  0  0  0  0  0  0  0
   16.6337    5.6207   -7.6887 C   0  0  0  0  0  0  0  0  0  0  0  0
   15.6757    5.9404   -6.7353 C   0  0  0  0  0  0  0  0  0  0  0  0
   14.7586    7.0473   -6.9553 C   0  0  0  0  0  0  0  0  0  0  0  0
   13.8145    7.2365   -7.9526 C   0  0  0  0  0  0  0  0  0  0  0  0
   13.4875    6.2917   -9.0420 C   0  0  0  0  0  0  0  0  0  0  0  0
   13.1315    8.4339   -7.8925 N   0  0  0  0  0  0  0  0  0  0  0  0
   13.5484    9.1255   -6.8554 C   0  0  0  0  0  0  0  0  0  0  0  0
   14.7536    8.3974   -5.8912 S   0  0  0  0  0  0  0  0  0  0  0  0
   15.6052    5.1682   -5.5839 C   0  0  0  0  0  0  0  0  0  0  0  0
   16.4689    4.1035   -5.3976 C   0  0  0  0  0  0  0  0  0  0  0  0
   15.0828   -0.4073   -7.3451 C   0  0  0  0  0  0  0  0  0  0  0  0
   13.8931   -0.5748   -6.4112 C   0  0  1  0  0  0  0  0  0  0  0  0
   12.7474   -1.0858   -7.0901 O   0  0  0  0  0  0  0  0  0  0  0  0
   14.3641   -1.5815   -5.3755 C   0  0  0  0  0  0  0  0  0  0  0  0
   18.9861   -6.2055   -5.3868 H   0  0  0  0  0  0  0  0  0  0  0  0
   17.9285   -7.5093   -5.9646 H   0  0  0  0  0  0  0  0  0  0  0  0
   18.2396   -7.3408   -4.2193 H   0  0  0  0  0  0  0  0  0  0  0  0
   18.1018   -4.5562   -4.0500 H   0  0  0  0  0  0  0  0  0  0  0  0
   15.2224   -3.9878   -4.5395 H   0  0  0  0  0  0  0  0  0  0  0  0
   15.0671   -1.4746   -2.5215 H   0  0  0  0  0  0  0  0  0  0  0  0
   14.5180   -2.4591   -1.1815 H   0  0  0  0  0  0  0  0  0  0  0  0
   13.8394   -2.7421   -2.7766 H   0  0  0  0  0  0  0  0  0  0  0  0
   15.1102   -4.7729   -0.9369 H   0  0  0  0  0  0  0  0  0  0  0  0
   16.1449   -5.6298   -2.0807 H   0  0  0  0  0  0  0  0  0  0  0  0
   14.4966   -5.2090   -2.5289 H   0  0  0  0  0  0  0  0  0  0  0  0
   16.9164   -3.0019   -0.6848 H   0  0  0  0  0  0  0  0  0  0  0  0
   17.4636   -2.0743   -2.0799 H   0  0  0  0  0  0  0  0  0  0  0  0
   17.9435   -3.7559   -1.8895 H   0  0  0  0  0  0  0  0  0  0  0  0
   17.1115   -1.0947   -7.0223 H   0  0  0  0  0  0  0  0  0  0  0  0
   18.0114    0.9216   -7.4398 H   0  0  0  0  0  0  0  0  0  0  0  0
   18.4967    2.4740   -5.0354 H   0  0  0  0  0  0  0  0  0  0  0  0
   20.2207    3.6093   -6.3965 H   0  0  0  0  0  0  0  0  0  0  0  0
   19.6495    2.7733   -7.8460 H   0  0  0  0  0  0  0  0  0  0  0  0
   20.3825    1.8798   -6.5069 H   0  0  0  0  0  0  0  0  0  0  0  0
   18.2267    4.3508   -8.2727 H   0  0  0  0  0  0  0  0  0  0  0  0
   16.7210    6.2128   -8.5959 H   0  0  0  0  0  0  0  0  0  0  0  0
   14.2765    6.2864   -9.7978 H   0  0  0  0  0  0  0  0  0  0  0  0
   12.5524    6.5707   -9.5292 H   0  0  0  0  0  0  0  0  0  0  0  0
   13.3671    5.2737   -8.6596 H   0  0  0  0  0  0  0  0  0  0  0  0
   13.1573   10.1029   -6.6148 H   0  0  0  0  0  0  0  0  0  0  0  0
   14.8618    5.3820   -4.8212 H   0  0  0  0  0  0  0  0  0  0  0  0
   16.3798    3.5249   -4.4829 H   0  0  0  0  0  0  0  0  0  0  0  0
   15.0884    0.5758   -7.8276 H   0  0  0  0  0  0  0  0  0  0  0  0
   15.0438   -1.1576   -8.1429 H   0  0  0  0  0  0  0  0  0  0  0  0
   13.6257    0.3756   -5.9353 H   0  0  0  0  0  0  0  0  0  0  0  0
   12.4948   -0.4506   -7.7833 H   0  0  0  0  0  0  0  0  0  0  0  0
   13.9380   -2.5772   -5.5033 H   0  0  0  0  0  0  0  0  0  0  0  0
   14.0793   -1.2236   -4.3872 H   0  0  0  0  0  0  0  0  0  0  0  0
  1 35  1  0  0  0  0
  1 36  1  0  0  0  0
  1 37  1  0  0  0  0
  1  2  1  0  0  0  0
  2  3  2  0  0  0  0
  2  4  1  0  0  0  0
  4 38  1  0  0  0  0
  5  4  1  0  0  0  0
  5 39  1  0  0  0  0
  5  6  1  0  0  0  0
  5 10  1  0  0  0  0
  6  7  1  0  0  0  0
  6  8  1  0  0  0  0
  6  9  1  0  0  0  0
  7 40  1  0  0  0  0
  7 41  1  0  0  0  0
  7 42  1  0  0  0  0
  8 43  1  0  0  0  0
  8 44  1  0  0  0  0
  8 45  1  0  0  0  0
  9 46  1  0  0  0  0
  9 47  1  0  0  0  0
  9 48  1  0  0  0  0
 10 11  2  0  0  0  0
 10 12  1  0  0  0  0
 12 34  1  0  0  0  0
 13 12  1  0  0  0  0
 13 31  1  0  0  0  0
 13 49  1  0  0  0  0
 13 14  1  0  0  0  0
 14 15  2  0  0  0  0
 14 16  1  0  0  0  0
 16 50  1  0  0  0  0
 17 16  1  0  0  0  0
 17 51  1  0  0  0  0
 17 18  1  0  0  0  0
 17 19  1  0  0  0  0
 18 52  1  0  0  0  0
 18 53  1  0  0  0  0
 18 54  1  0  0  0  0
 19 20  1  0  0  0  0
 19 30  2  0  0  0  0
 20 55  1  0  0  0  0
 20 21  2  0  0  0  0
 21 56  1  0  0  0  0
 21 22  1  0  0  0  0
 22 29  2  0  0  0  0
 22 23  1  0  0  0  0
 23 24  2  0  0  0  0
 23 28  1  0  0  0  0
 24 25  1  0  0  0  0
 24 26  1  0  0  0  0
 25 57  1  0  0  0  0
 25 58  1  0  0  0  0
 25 59  1  0  0  0  0
 26 27  2  0  0  0  0
 27 60  1  0  0  0  0
 27 28  1  0  0  0  0
 29 61  1  0  0  0  0
 29 30  1  0  0  0  0
 30 62  1  0  0  0  0
 32 31  1  0  0  0  0
 31 63  1  0  0  0  0
 31 64  1  0  0  0  0
 32 34  1  0  0  0  0
 32 65  1  0  0  0  0
 32 33  1  0  0  0  0
 33 66  1  0  0  0  0
 34 67  1  0  0  0  0
 34 68  1  0  0  0  0
M  ZZC   1 c1
M  ZZC   2 c2
M  ZZC   3 o1
M  ZZC   4 n1
M  ZZC   5 c3
M  ZZC   6 c4
M  ZZC   7 c5
M  ZZC   8 c6
M  ZZC   9 c7
M  ZZC  10 c8
M  ZZC  11 o2
M  ZZC  12 n2
M  ZZC  13 c9
M  ZZC  14 c10
M  ZZC  15 o3
M  ZZC  16 n3
M  ZZC  17 c11
M  ZZC  18 c12
M  ZZC  19 c13
M  ZZC  20 c14
M  ZZC  21 c15
M  ZZC  22 c16
M  ZZC  23 c17
M  ZZC  24 c18
M  ZZC  25 c19
M  ZZC  26 n4
M  ZZC  27 c20
M  ZZC  28 s1
M  ZZC  29 c21
M  ZZC  30 c22
M  ZZC  31 c23
M  ZZC  32 c24
M  ZZC  33 o4
M  ZZC  34 c25
M  ZZC  35 h11
M  ZZC  36 h12
M  ZZC  37 h13
M  ZZC  38 h01
M  ZZC  39 h31
M  ZZC  40 h51
M  ZZC  41 h52
M  ZZC  42 h53
M  ZZC  43 h61
M  ZZC  44 h62
M  ZZC  45 h63
M  ZZC  46 h71
M  ZZC  47 h72
M  ZZC  48 h73
M  ZZC  49 h91
M  ZZC  50 h02
M  ZZC  51 h111
M  ZZC  52 h121
M  ZZC  53 h122
M  ZZC  54 h123
M  ZZC  55 h141
M  ZZC  56 h151
M  ZZC  57 h191
M  ZZC  58 h192
M  ZZC  59 h193
M  ZZC  60 h201
M  ZZC  61 h211
M  ZZC  62 h221
M  ZZC  63 h231
M  ZZC  64 h232
M  ZZC  65 h241
M  ZZC  66 h41
M  ZZC  67 h251
M  ZZC  68 h252
M  ZZM   1 1
M  ZZI   1 111
M  ZZM   2 3
M  ZZI   2 121
M  ZZM   3 7
M  ZZI   3 81
M  ZZM   4 10
M  ZZI   4 211
M  ZZM   5 1
M  ZZI   5 113
M  ZZM   6 1
M  ZZI   6 110
M  ZZM   7 1
M  ZZI   7 111
M  ZZM   8 1
M  ZZI   8 111
M  ZZM   9 1
M  ZZI   9 111
M  ZZM  10 3
M  ZZI  10 121
M  ZZM  11 7
M  ZZI  11 81
M  ZZM  12 10
M  ZZI  12 192
M  ZZM  13 1
M  ZZI  13 113
M  ZZM  14 3
M  ZZI  14 121
M  ZZM  15 7
M  ZZI  15 81
M  ZZM  16 10
M  ZZI  16 211
M  ZZM  17 1
M  ZZI  17 113
M  ZZM  18 1
M  ZZI  18 111
M  ZZM  19 37
M  ZZI  19 124
M  ZZM  20 37
M  ZZI  20 125
M  ZZM  21 37
M  ZZI  21 125
M  ZZM  22 37
M  ZZI  22 124
M  ZZM  23 63
M  ZZI  23 104
M  ZZM  24 64
M  ZZI  24 105
M  ZZM  25 1
M  ZZI  25 111
M  ZZM  26 66
M  ZZI  26 222
M  ZZM  27 63
M  ZZI  27 104
M  ZZM  28 44
M  ZZI  28 248
M  ZZM  29 37
M  ZZI  29 125
M  ZZM  30 37
M  ZZI  30 125
M  ZZM  31 1
M  ZZI  31 112
M  ZZM  32 1
M  ZZI  32 113
M  ZZM  33 6
M  ZZI  33 60
M  ZZM  34 1
M  ZZI  34 112
M  ZZM  35 5
M  ZZI  35 1
M  ZZM  36 5
M  ZZI  36 1
M  ZZM  37 5
M  ZZI  37 1
M  ZZM  38 28
M  ZZI  38 11
M  ZZM  39 5
M  ZZI  39 1
M  ZZM  40 5
M  ZZI  40 1
M  ZZM  41 5
M  ZZI  41 1
M  ZZM  42 5
M  ZZI  42 1
M  ZZM  43 5
M  ZZI  43 1
M  ZZM  44 5
M  ZZI  44 1
M  ZZM  45 5
M  ZZI  45 1
M  ZZM  46 5
M  ZZI  46 1
M  ZZM  47 5
M  ZZI  47 1
M  ZZM  48 5
M  ZZI  48 1
M  ZZM  49 5
M  ZZI  49 1
M  ZZM  50 28
M  ZZI  50 11
M  ZZM  51 5
M  ZZI  51 1
M  ZZM  52 5
M  ZZI  52 1
M  ZZM  53 5
M  ZZI  53 1
M  ZZM  54 5
M  ZZI  54 1
M  ZZM  55 5
M  ZZI  55 1
M  ZZM  56 5
M  ZZI  56 1
M  ZZM  57 5
M  ZZI  57 1
M  ZZM  58 5
M  ZZI  58 1
M  ZZM  59 5
M  ZZI  59 1
M  ZZM  60 5
M  ZZI  60 1
M  ZZM  61 5
M  ZZI  61 1
M  ZZM  62 5
M  ZZI  62 1
M  ZZM  63 5
M  ZZI  63 1
M  ZZM  64 5
M  ZZI  64 1
M  ZZM  65 5
M  ZZI  65 1
M  ZZM  66 21
M  ZZI  66 20
M  ZZM  67 5
M  ZZI  67 1
M  ZZM  68 5
M  ZZI  68 1
M  END
> <IX>
1

> <NAME>
VHL_5T8E_46.pdb

> <Score>
-1.524599

> <Natom>
68

> <Nflex>
8

> <Hbond>
-4.863965

> <Hphob>
-6.748215

> <VwInt>
-27.507727

> <Dsolv>
22.820237

> <SolEl>
23.890101

> <Eintl>
8.546034

> <RecConf>
ND

> <projPath>
VHL_maps/

> <NAME_>
VHL_5T8E_46.pdb

$$$$
