VHL_4QNQ_20.pdb
  MOLSOFT 04032206403D

 68 70  0  0  1  0  0  0  0  0999 V2000
   18.0734   -6.8078   -5.1152 C   0  0  0  0  0  0  0  0  0  0  0  0
   16.8845   -5.8934   -5.0059 C   0  0  0  0  0  0  0  0  0  0  0  0
   15.8026   -6.2167   -5.4646 O   0  0  0  0  0  0  0  0  0  0  0  0
   17.1456   -4.7245   -4.3195 N   0  0  0  0  0  0  0  0  0  0  0  0
   16.1665   -3.6520   -4.0788 C   0  0  1  0  0  0  0  0  0  0  0  0
   15.8575   -3.4807   -2.5620 C   0  0  0  0  0  0  0  0  0  0  0  0
   14.7440   -2.4593   -2.3033 C   0  0  0  0  0  0  0  0  0  0  0  0
   15.3596   -4.8257   -2.0185 C   0  0  0  0  0  0  0  0  0  0  0  0
   17.0881   -3.0331   -1.7603 C   0  0  0  0  0  0  0  0  0  0  0  0
   16.7630   -2.4253   -4.7969 C   0  0  0  0  0  0  0  0  0  0  0  0
   17.9707   -2.2207   -4.7846 O   0  0  0  0  0  0  0  0  0  0  0  0
   15.9001   -1.5723   -5.4895 N   0  0  0  0  0  0  0  0  0  0  0  0
   16.4319   -0.6117   -6.4436 C   0  0  2  0  0  0  0  0  0  0  0  0
   16.9301    0.6661   -5.7652 C   0  0  0  0  0  0  0  0  0  0  0  0
   16.5473    1.0212   -4.6586 O   0  0  0  0  0  0  0  0  0  0  0  0
   17.8195    1.3851   -6.5473 N   0  0  0  0  0  0  0  0  0  0  0  0
   18.4275    2.6353   -6.1115 C   0  0  1  0  0  0  0  0  0  0  0  0
   19.8058    2.7994   -6.7572 C   0  0  0  0  0  0  0  0  0  0  0  0
   17.4994    3.8167   -6.3503 C   0  0  0  0  0  0  0  0  0  0  0  0
   17.5457    4.5989   -7.5049 C   0  0  0  0  0  0  0  0  0  0  0  0
   16.6656    5.6505   -7.6955 C   0  0  0  0  0  0  0  0  0  0  0  0
   15.7090    5.9618   -6.7377 C   0  0  0  0  0  0  0  0  0  0  0  0
   14.7773    7.0572   -6.9560 C   0  0  0  0  0  0  0  0  0  0  0  0
   13.8284    7.2363   -7.9511 C   0  0  0  0  0  0  0  0  0  0  0  0
   13.5045    6.2867   -9.0371 C   0  0  0  0  0  0  0  0  0  0  0  0
   13.1346    8.4276   -7.8910 N   0  0  0  0  0  0  0  0  0  0  0  0
   13.5480    9.1247   -6.8563 C   0  0  0  0  0  0  0  0  0  0  0  0
   14.7620    8.4093   -5.8941 S   0  0  0  0  0  0  0  0  0  0  0  0
   15.6563    5.1938   -5.5825 C   0  0  0  0  0  0  0  0  0  0  0  0
   16.5378    4.1439   -5.3953 C   0  0  0  0  0  0  0  0  0  0  0  0
   15.2739   -0.3503   -7.3940 C   0  0  0  0  0  0  0  0  0  0  0  0
   14.0426   -0.5008   -6.5171 C   0  0  1  0  0  0  0  0  0  0  0  0
   12.9378   -0.9737   -7.2856 O   0  0  0  0  0  0  0  0  0  0  0  0
   14.4495   -1.5276   -5.4697 C   0  0  0  0  0  0  0  0  0  0  0  0
   19.0014   -6.2361   -5.2139 H   0  0  0  0  0  0  0  0  0  0  0  0
   17.9637   -7.4426   -5.9994 H   0  0  0  0  0  0  0  0  0  0  0  0
   18.1199   -7.4381   -4.2240 H   0  0  0  0  0  0  0  0  0  0  0  0
   18.1057   -4.5483   -4.0439 H   0  0  0  0  0  0  0  0  0  0  0  0
   15.2431   -3.9407   -4.5787 H   0  0  0  0  0  0  0  0  0  0  0  0
   15.0540   -1.4465   -2.5747 H   0  0  0  0  0  0  0  0  0  0  0  0
   14.4723   -2.4251   -1.2431 H   0  0  0  0  0  0  0  0  0  0  0  0
   13.8335   -2.7129   -2.8550 H   0  0  0  0  0  0  0  0  0  0  0  0
   15.0753   -4.7435   -0.9671 H   0  0  0  0  0  0  0  0  0  0  0  0
   16.1229   -5.6025   -2.0941 H   0  0  0  0  0  0  0  0  0  0  0  0
   14.4816   -5.1810   -2.5674 H   0  0  0  0  0  0  0  0  0  0  0  0
   16.8657   -2.9706   -0.6901 H   0  0  0  0  0  0  0  0  0  0  0  0
   17.4423   -2.0466   -2.0751 H   0  0  0  0  0  0  0  0  0  0  0  0
   17.9172   -3.7291   -1.8715 H   0  0  0  0  0  0  0  0  0  0  0  0
   17.2740   -1.0585   -6.9767 H   0  0  0  0  0  0  0  0  0  0  0  0
   18.1091    0.9950   -7.4391 H   0  0  0  0  0  0  0  0  0  0  0  0
   18.5948    2.5535   -5.0311 H   0  0  0  0  0  0  0  0  0  0  0  0
   20.2936    3.7136   -6.4130 H   0  0  0  0  0  0  0  0  0  0  0  0
   19.7324    2.8477   -7.8481 H   0  0  0  0  0  0  0  0  0  0  0  0
   20.4859    1.9830   -6.5020 H   0  0  0  0  0  0  0  0  0  0  0  0
   18.2769    4.4041   -8.2809 H   0  0  0  0  0  0  0  0  0  0  0  0
   16.7386    6.2387   -8.6066 H   0  0  0  0  0  0  0  0  0  0  0  0
   14.2793    6.3052   -9.8071 H   0  0  0  0  0  0  0  0  0  0  0  0
   12.5534    6.5432   -9.5056 H   0  0  0  0  0  0  0  0  0  0  0  0
   13.4193    5.2641   -8.6574 H   0  0  0  0  0  0  0  0  0  0  0  0
   13.1489   10.0989   -6.6163 H   0  0  0  0  0  0  0  0  0  0  0  0
   14.9140    5.4001   -4.8166 H   0  0  0  0  0  0  0  0  0  0  0  0
   16.4622    3.5672   -4.4782 H   0  0  0  0  0  0  0  0  0  0  0  0
   15.3138    0.6314   -7.8777 H   0  0  0  0  0  0  0  0  0  0  0  0
   15.2599   -1.1005   -8.1934 H   0  0  0  0  0  0  0  0  0  0  0  0
   13.7789    0.4588   -6.0569 H   0  0  0  0  0  0  0  0  0  0  0  0
   12.1188   -0.7000   -6.8360 H   0  0  0  0  0  0  0  0  0  0  0  0
   14.0307   -2.5187   -5.6412 H   0  0  0  0  0  0  0  0  0  0  0  0
   14.1108   -1.1905   -4.4909 H   0  0  0  0  0  0  0  0  0  0  0  0
  1 35  1  0  0  0  0
  1 36  1  0  0  0  0
  1 37  1  0  0  0  0
  1  2  1  0  0  0  0
  2  3  2  0  0  0  0
  2  4  1  0  0  0  0
  4 38  1  0  0  0  0
  5  4  1  0  0  0  0
  5 39  1  0  0  0  0
  5  6  1  0  0  0  0
  5 10  1  0  0  0  0
  6  7  1  0  0  0  0
  6  8  1  0  0  0  0
  6  9  1  0  0  0  0
  7 40  1  0  0  0  0
  7 41  1  0  0  0  0
  7 42  1  0  0  0  0
  8 43  1  0  0  0  0
  8 44  1  0  0  0  0
  8 45  1  0  0  0  0
  9 46  1  0  0  0  0
  9 47  1  0  0  0  0
  9 48  1  0  0  0  0
 10 11  2  0  0  0  0
 10 12  1  0  0  0  0
 12 34  1  0  0  0  0
 13 12  1  0  0  0  0
 13 31  1  0  0  0  0
 13 49  1  0  0  0  0
 13 14  1  0  0  0  0
 14 15  2  0  0  0  0
 14 16  1  0  0  0  0
 16 50  1  0  0  0  0
 17 16  1  0  0  0  0
 17 51  1  0  0  0  0
 17 18  1  0  0  0  0
 17 19  1  0  0  0  0
 18 52  1  0  0  0  0
 18 53  1  0  0  0  0
 18 54  1  0  0  0  0
 19 20  1  0  0  0  0
 19 30  2  0  0  0  0
 20 55  1  0  0  0  0
 20 21  2  0  0  0  0
 21 56  1  0  0  0  0
 21 22  1  0  0  0  0
 22 29  2  0  0  0  0
 22 23  1  0  0  0  0
 23 24  2  0  0  0  0
 23 28  1  0  0  0  0
 24 25  1  0  0  0  0
 24 26  1  0  0  0  0
 25 57  1  0  0  0  0
 25 58  1  0  0  0  0
 25 59  1  0  0  0  0
 26 27  2  0  0  0  0
 27 60  1  0  0  0  0
 27 28  1  0  0  0  0
 29 61  1  0  0  0  0
 29 30  1  0  0  0  0
 30 62  1  0  0  0  0
 32 31  1  0  0  0  0
 31 63  1  0  0  0  0
 31 64  1  0  0  0  0
 32 34  1  0  0  0  0
 32 65  1  0  0  0  0
 32 33  1  0  0  0  0
 33 66  1  0  0  0  0
 34 67  1  0  0  0  0
 34 68  1  0  0  0  0
M  ZZC   1 c1
M  ZZC   2 c2
M  ZZC   3 o1
M  ZZC   4 n1
M  ZZC   5 c3
M  ZZC   6 c4
M  ZZC   7 c5
M  ZZC   8 c6
M  ZZC   9 c7
M  ZZC  10 c8
M  ZZC  11 o2
M  ZZC  12 n2
M  ZZC  13 c9
M  ZZC  14 c10
M  ZZC  15 o3
M  ZZC  16 n3
M  ZZC  17 c11
M  ZZC  18 c12
M  ZZC  19 c13
M  ZZC  20 c14
M  ZZC  21 c15
M  ZZC  22 c16
M  ZZC  23 c17
M  ZZC  24 c18
M  ZZC  25 c19
M  ZZC  26 n4
M  ZZC  27 c20
M  ZZC  28 s1
M  ZZC  29 c21
M  ZZC  30 c22
M  ZZC  31 c23
M  ZZC  32 c24
M  ZZC  33 o4
M  ZZC  34 c25
M  ZZC  35 h11
M  ZZC  36 h12
M  ZZC  37 h13
M  ZZC  38 h01
M  ZZC  39 h31
M  ZZC  40 h51
M  ZZC  41 h52
M  ZZC  42 h53
M  ZZC  43 h61
M  ZZC  44 h62
M  ZZC  45 h63
M  ZZC  46 h71
M  ZZC  47 h72
M  ZZC  48 h73
M  ZZC  49 h91
M  ZZC  50 h02
M  ZZC  51 h111
M  ZZC  52 h121
M  ZZC  53 h122
M  ZZC  54 h123
M  ZZC  55 h141
M  ZZC  56 h151
M  ZZC  57 h191
M  ZZC  58 h192
M  ZZC  59 h193
M  ZZC  60 h201
M  ZZC  61 h211
M  ZZC  62 h221
M  ZZC  63 h231
M  ZZC  64 h232
M  ZZC  65 h241
M  ZZC  66 h41
M  ZZC  67 h251
M  ZZC  68 h252
M  ZZM   1 1
M  ZZI   1 111
M  ZZM   2 3
M  ZZI   2 121
M  ZZM   3 7
M  ZZI   3 81
M  ZZM   4 10
M  ZZI   4 211
M  ZZM   5 1
M  ZZI   5 113
M  ZZM   6 1
M  ZZI   6 110
M  ZZM   7 1
M  ZZI   7 111
M  ZZM   8 1
M  ZZI   8 111
M  ZZM   9 1
M  ZZI   9 111
M  ZZM  10 3
M  ZZI  10 121
M  ZZM  11 7
M  ZZI  11 81
M  ZZM  12 10
M  ZZI  12 192
M  ZZM  13 1
M  ZZI  13 113
M  ZZM  14 3
M  ZZI  14 121
M  ZZM  15 7
M  ZZI  15 81
M  ZZM  16 10
M  ZZI  16 211
M  ZZM  17 1
M  ZZI  17 113
M  ZZM  18 1
M  ZZI  18 111
M  ZZM  19 37
M  ZZI  19 124
M  ZZM  20 37
M  ZZI  20 125
M  ZZM  21 37
M  ZZI  21 125
M  ZZM  22 37
M  ZZI  22 124
M  ZZM  23 63
M  ZZI  23 104
M  ZZM  24 64
M  ZZI  24 105
M  ZZM  25 1
M  ZZI  25 111
M  ZZM  26 66
M  ZZI  26 222
M  ZZM  27 63
M  ZZI  27 104
M  ZZM  28 44
M  ZZI  28 248
M  ZZM  29 37
M  ZZI  29 125
M  ZZM  30 37
M  ZZI  30 125
M  ZZM  31 1
M  ZZI  31 112
M  ZZM  32 1
M  ZZI  32 113
M  ZZM  33 6
M  ZZI  33 60
M  ZZM  34 1
M  ZZI  34 112
M  ZZM  35 5
M  ZZI  35 1
M  ZZM  36 5
M  ZZI  36 1
M  ZZM  37 5
M  ZZI  37 1
M  ZZM  38 28
M  ZZI  38 11
M  ZZM  39 5
M  ZZI  39 1
M  ZZM  40 5
M  ZZI  40 1
M  ZZM  41 5
M  ZZI  41 1
M  ZZM  42 5
M  ZZI  42 1
M  ZZM  43 5
M  ZZI  43 1
M  ZZM  44 5
M  ZZI  44 1
M  ZZM  45 5
M  ZZI  45 1
M  ZZM  46 5
M  ZZI  46 1
M  ZZM  47 5
M  ZZI  47 1
M  ZZM  48 5
M  ZZI  48 1
M  ZZM  49 5
M  ZZI  49 1
M  ZZM  50 28
M  ZZI  50 11
M  ZZM  51 5
M  ZZI  51 1
M  ZZM  52 5
M  ZZI  52 1
M  ZZM  53 5
M  ZZI  53 1
M  ZZM  54 5
M  ZZI  54 1
M  ZZM  55 5
M  ZZI  55 1
M  ZZM  56 5
M  ZZI  56 1
M  ZZM  57 5
M  ZZI  57 1
M  ZZM  58 5
M  ZZI  58 1
M  ZZM  59 5
M  ZZI  59 1
M  ZZM  60 5
M  ZZI  60 1
M  ZZM  61 5
M  ZZI  61 1
M  ZZM  62 5
M  ZZI  62 1
M  ZZM  63 5
M  ZZI  63 1
M  ZZM  64 5
M  ZZI  64 1
M  ZZM  65 5
M  ZZI  65 1
M  ZZM  66 21
M  ZZI  66 20
M  ZZM  67 5
M  ZZI  67 1
M  ZZM  68 5
M  ZZI  68 1
M  END
> <IX>
1

> <NAME>
VHL_4QNQ_20.pdb

> <Score>
-3.400468

> <Natom>
68

> <Nflex>
8

> <Hbond>
-5.003088

> <Hphob>
-6.865746

> <VwInt>
-28.165314

> <Dsolv>
22.979538

> <SolEl>
22.914006

> <Eintl>
8.108018

> <RecConf>
ND

> <projPath>
VHL_maps/

> <NAME_>
VHL_4QNQ_20.pdb

$$$$
