VHL_4MKC_7.pdb
  MOLSOFT 04032206403D

 65 67  0  0  1  0  0  0  0  0999 V2000
   20.1419    4.0774   -7.5594 C   0  0  0  0  0  0  0  0  0  0  0  0
   18.7403    3.6906   -7.1753 C   0  0  0  0  0  0  0  0  0  0  0  0
   17.7682    4.0165   -7.8413 O   0  0  0  0  0  0  0  0  0  0  0  0
   18.7082    2.9260   -6.0269 N   0  0  0  0  0  0  0  0  0  0  0  0
   17.4820    2.3525   -5.4678 C   0  0  2  0  0  0  0  0  0  0  0  0
   17.2915    2.7417   -3.9689 C   0  0  0  0  0  0  0  0  0  0  0  0
   18.3964    2.1745   -3.0571 C   0  0  0  0  0  0  0  0  0  0  0  0
   17.3048    4.2727   -3.8305 C   0  0  0  0  0  0  0  0  0  0  0  0
   15.9351    2.2384   -3.4520 C   0  0  0  0  0  0  0  0  0  0  0  0
   17.6138    0.8382   -5.6912 C   0  0  0  0  0  0  0  0  0  0  0  0
   18.6638    0.2637   -5.4238 O   0  0  0  0  0  0  0  0  0  0  0  0
   16.5196    0.1447   -6.2189 N   0  0  0  0  0  0  0  0  0  0  0  0
   15.1777    0.6122   -6.6030 C   0  0  1  0  0  0  0  0  0  0  0  0
   15.0853    1.5528   -7.8084 C   0  0  0  0  0  0  0  0  0  0  0  0
   15.9461    1.6292   -8.6712 O   0  0  0  0  0  0  0  0  0  0  0  0
   13.9059    2.2772   -7.8435 N   0  0  0  0  0  0  0  0  0  0  0  0
   13.6575    3.3246   -8.8152 C   0  0  0  0  0  0  0  0  0  0  0  0
   13.8647    4.7096   -8.2514 C   0  0  0  0  0  0  0  0  0  0  0  0
   13.4784    5.8236   -8.9881 C   0  0  0  0  0  0  0  0  0  0  0  0
   13.5999    7.1014   -8.4748 C   0  0  0  0  0  0  0  0  0  0  0  0
   14.1367    7.3091   -7.2102 C   0  0  0  0  0  0  0  0  0  0  0  0
   14.2222    8.6412   -6.6325 C   0  0  0  0  0  0  0  0  0  0  0  0
   13.7514    9.1316   -5.4207 C   0  0  0  0  0  0  0  0  0  0  0  0
   13.0262    8.3760   -4.3704 C   0  0  0  0  0  0  0  0  0  0  0  0
   13.9642   10.4829   -5.2175 N   0  0  0  0  0  0  0  0  0  0  0  0
   14.6429   10.9791   -6.2283 C   0  0  0  0  0  0  0  0  0  0  0  0
   15.0429    9.8894   -7.4803 S   0  0  0  0  0  0  0  0  0  0  0  0
   14.5759    6.2055   -6.4945 C   0  0  0  0  0  0  0  0  0  0  0  0
   14.4380    4.9296   -7.0023 C   0  0  0  0  0  0  0  0  0  0  0  0
   14.4239   -0.6684   -6.9611 C   0  0  0  0  0  0  0  0  0  0  0  0
   15.5321   -1.6329   -7.3515 C   0  0  1  0  0  0  0  0  0  0  0  0
   15.9981   -1.3599   -8.6837 O   0  0  0  0  0  0  0  0  0  0  0  0
   16.5982   -1.2953   -6.3306 C   0  0  0  0  0  0  0  0  0  0  0  0
   20.6306    4.5875   -6.7235 H   0  0  0  0  0  0  0  0  0  0  0  0
   20.1184    4.7537   -8.4183 H   0  0  0  0  0  0  0  0  0  0  0  0
   20.7137    3.1815   -7.8205 H   0  0  0  0  0  0  0  0  0  0  0  0
   19.5907    2.6395   -5.6141 H   0  0  0  0  0  0  0  0  0  0  0  0
   16.6444    2.7354   -6.0521 H   0  0  0  0  0  0  0  0  0  0  0  0
   18.3790    1.0814   -3.0197 H   0  0  0  0  0  0  0  0  0  0  0  0
   18.2753    2.5233   -2.0265 H   0  0  0  0  0  0  0  0  0  0  0  0
   19.3953    2.4820   -3.3804 H   0  0  0  0  0  0  0  0  0  0  0  0
   18.2772    4.7005   -4.0941 H   0  0  0  0  0  0  0  0  0  0  0  0
   17.0873    4.5848   -2.8037 H   0  0  0  0  0  0  0  0  0  0  0  0
   16.5541    4.7366   -4.4756 H   0  0  0  0  0  0  0  0  0  0  0  0
   15.7751    2.5220   -2.4068 H   0  0  0  0  0  0  0  0  0  0  0  0
   15.8692    1.1466   -3.5008 H   0  0  0  0  0  0  0  0  0  0  0  0
   15.1019    2.6342   -4.0407 H   0  0  0  0  0  0  0  0  0  0  0  0
   14.7156    1.1082   -5.7446 H   0  0  0  0  0  0  0  0  0  0  0  0
   13.1857    2.1191   -7.1468 H   0  0  0  0  0  0  0  0  0  0  0  0
   14.2998    3.1782   -9.6867 H   0  0  0  0  0  0  0  0  0  0  0  0
   12.6171    3.2103   -9.1355 H   0  0  0  0  0  0  0  0  0  0  0  0
   13.0617    5.7058   -9.9805 H   0  0  0  0  0  0  0  0  0  0  0  0
   13.2500    7.9363   -9.0724 H   0  0  0  0  0  0  0  0  0  0  0  0
   11.9941    8.1823   -4.6771 H   0  0  0  0  0  0  0  0  0  0  0  0
   13.0118    8.9390   -3.4335 H   0  0  0  0  0  0  0  0  0  0  0  0
   13.5006    7.4170   -4.1524 H   0  0  0  0  0  0  0  0  0  0  0  0
   14.9312   12.0194   -6.2772 H   0  0  0  0  0  0  0  0  0  0  0  0
   15.0292    6.3296   -5.5167 H   0  0  0  0  0  0  0  0  0  0  0  0
   14.7769    4.1033   -6.3900 H   0  0  0  0  0  0  0  0  0  0  0  0
   13.9004   -1.0477   -6.0756 H   0  0  0  0  0  0  0  0  0  0  0  0
   13.6876   -0.5286   -7.7583 H   0  0  0  0  0  0  0  0  0  0  0  0
   15.2240   -2.6793   -7.3044 H   0  0  0  0  0  0  0  0  0  0  0  0
   16.8093   -0.8173   -8.6071 H   0  0  0  0  0  0  0  0  0  0  0  0
   17.6057   -1.6070   -6.6000 H   0  0  0  0  0  0  0  0  0  0  0  0
   16.3573   -1.7168   -5.3478 H   0  0  0  0  0  0  0  0  0  0  0  0
  1 34  1  0  0  0  0
  1 35  1  0  0  0  0
  1 36  1  0  0  0  0
  1  2  1  0  0  0  0
  2  3  2  0  0  0  0
  2  4  1  0  0  0  0
  4 37  1  0  0  0  0
  5  4  1  0  0  0  0
  5 38  1  0  0  0  0
  5  6  1  0  0  0  0
  5 10  1  0  0  0  0
  6  7  1  0  0  0  0
  6  8  1  0  0  0  0
  6  9  1  0  0  0  0
  7 39  1  0  0  0  0
  7 40  1  0  0  0  0
  7 41  1  0  0  0  0
  8 42  1  0  0  0  0
  8 43  1  0  0  0  0
  8 44  1  0  0  0  0
  9 45  1  0  0  0  0
  9 46  1  0  0  0  0
  9 47  1  0  0  0  0
 10 11  2  0  0  0  0
 10 12  1  0  0  0  0
 12 33  1  0  0  0  0
 13 12  1  0  0  0  0
 13 30  1  0  0  0  0
 13 48  1  0  0  0  0
 13 14  1  0  0  0  0
 14 15  2  0  0  0  0
 14 16  1  0  0  0  0
 16 49  1  0  0  0  0
 16 17  1  0  0  0  0
 17 50  1  0  0  0  0
 17 51  1  0  0  0  0
 17 18  1  0  0  0  0
 18 19  1  0  0  0  0
 18 29  2  0  0  0  0
 19 52  1  0  0  0  0
 19 20  2  0  0  0  0
 20 53  1  0  0  0  0
 20 21  1  0  0  0  0
 21 28  2  0  0  0  0
 21 22  1  0  0  0  0
 22 23  2  0  0  0  0
 22 27  1  0  0  0  0
 23 24  1  0  0  0  0
 23 25  1  0  0  0  0
 24 54  1  0  0  0  0
 24 55  1  0  0  0  0
 24 56  1  0  0  0  0
 25 26  2  0  0  0  0
 26 57  1  0  0  0  0
 26 27  1  0  0  0  0
 28 58  1  0  0  0  0
 28 29  1  0  0  0  0
 29 59  1  0  0  0  0
 31 30  1  0  0  0  0
 30 60  1  0  0  0  0
 30 61  1  0  0  0  0
 31 33  1  0  0  0  0
 31 62  1  0  0  0  0
 31 32  1  0  0  0  0
 32 63  1  0  0  0  0
 33 64  1  0  0  0  0
 33 65  1  0  0  0  0
M  ZZC   1 c1
M  ZZC   2 c2
M  ZZC   3 o1
M  ZZC   4 n1
M  ZZC   5 c3
M  ZZC   6 c4
M  ZZC   7 c5
M  ZZC   8 c6
M  ZZC   9 c7
M  ZZC  10 c8
M  ZZC  11 o2
M  ZZC  12 n2
M  ZZC  13 c9
M  ZZC  14 c10
M  ZZC  15 o3
M  ZZC  16 n3
M  ZZC  17 c11
M  ZZC  18 c12
M  ZZC  19 c13
M  ZZC  20 c14
M  ZZC  21 c15
M  ZZC  22 c16
M  ZZC  23 c17
M  ZZC  24 c18
M  ZZC  25 n4
M  ZZC  26 c19
M  ZZC  27 s1
M  ZZC  28 c20
M  ZZC  29 c21
M  ZZC  30 c22
M  ZZC  31 c23
M  ZZC  32 o4
M  ZZC  33 c24
M  ZZC  34 h11
M  ZZC  35 h12
M  ZZC  36 h13
M  ZZC  37 h01
M  ZZC  38 h31
M  ZZC  39 h51
M  ZZC  40 h52
M  ZZC  41 h53
M  ZZC  42 h61
M  ZZC  43 h62
M  ZZC  44 h63
M  ZZC  45 h71
M  ZZC  46 h72
M  ZZC  47 h73
M  ZZC  48 h91
M  ZZC  49 h02
M  ZZC  50 h111
M  ZZC  51 h112
M  ZZC  52 h131
M  ZZC  53 h141
M  ZZC  54 h181
M  ZZC  55 h182
M  ZZC  56 h183
M  ZZC  57 h191
M  ZZC  58 h201
M  ZZC  59 h211
M  ZZC  60 h221
M  ZZC  61 h222
M  ZZC  62 h231
M  ZZC  63 h41
M  ZZC  64 h241
M  ZZC  65 h242
M  ZZM   1 1
M  ZZI   1 111
M  ZZM   2 3
M  ZZI   2 121
M  ZZM   3 7
M  ZZI   3 81
M  ZZM   4 10
M  ZZI   4 211
M  ZZM   5 1
M  ZZI   5 113
M  ZZM   6 1
M  ZZI   6 110
M  ZZM   7 1
M  ZZI   7 111
M  ZZM   8 1
M  ZZI   8 111
M  ZZM   9 1
M  ZZI   9 111
M  ZZM  10 3
M  ZZI  10 121
M  ZZM  11 7
M  ZZI  11 81
M  ZZM  12 10
M  ZZI  12 192
M  ZZM  13 1
M  ZZI  13 113
M  ZZM  14 3
M  ZZI  14 121
M  ZZM  15 7
M  ZZI  15 81
M  ZZM  16 10
M  ZZI  16 211
M  ZZM  17 1
M  ZZI  17 112
M  ZZM  18 37
M  ZZI  18 124
M  ZZM  19 37
M  ZZI  19 125
M  ZZM  20 37
M  ZZI  20 125
M  ZZM  21 37
M  ZZI  21 124
M  ZZM  22 63
M  ZZI  22 104
M  ZZM  23 64
M  ZZI  23 105
M  ZZM  24 1
M  ZZI  24 111
M  ZZM  25 66
M  ZZI  25 222
M  ZZM  26 63
M  ZZI  26 104
M  ZZM  27 44
M  ZZI  27 248
M  ZZM  28 37
M  ZZI  28 125
M  ZZM  29 37
M  ZZI  29 125
M  ZZM  30 1
M  ZZI  30 112
M  ZZM  31 1
M  ZZI  31 113
M  ZZM  32 6
M  ZZI  32 60
M  ZZM  33 1
M  ZZI  33 112
M  ZZM  34 5
M  ZZI  34 1
M  ZZM  35 5
M  ZZI  35 1
M  ZZM  36 5
M  ZZI  36 1
M  ZZM  37 28
M  ZZI  37 11
M  ZZM  38 5
M  ZZI  38 1
M  ZZM  39 5
M  ZZI  39 1
M  ZZM  40 5
M  ZZI  40 1
M  ZZM  41 5
M  ZZI  41 1
M  ZZM  42 5
M  ZZI  42 1
M  ZZM  43 5
M  ZZI  43 1
M  ZZM  44 5
M  ZZI  44 1
M  ZZM  45 5
M  ZZI  45 1
M  ZZM  46 5
M  ZZI  46 1
M  ZZM  47 5
M  ZZI  47 1
M  ZZM  48 5
M  ZZI  48 1
M  ZZM  49 28
M  ZZI  49 11
M  ZZM  50 5
M  ZZI  50 1
M  ZZM  51 5
M  ZZI  51 1
M  ZZM  52 5
M  ZZI  52 1
M  ZZM  53 5
M  ZZI  53 1
M  ZZM  54 5
M  ZZI  54 1
M  ZZM  55 5
M  ZZI  55 1
M  ZZM  56 5
M  ZZI  56 1
M  ZZM  57 5
M  ZZI  57 1
M  ZZM  58 5
M  ZZI  58 1
M  ZZM  59 5
M  ZZI  59 1
M  ZZM  60 5
M  ZZI  60 1
M  ZZM  61 5
M  ZZI  61 1
M  ZZM  62 5
M  ZZI  62 1
M  ZZM  63 21
M  ZZI  63 20
M  ZZM  64 5
M  ZZI  64 1
M  ZZM  65 5
M  ZZI  65 1
M  END
> <IX>
1

> <NAME>
VHL_4MKC_7.pdb

> <Score>
-19.492542

> <Natom>
65

> <Nflex>
8

> <Hbond>
-9.711326

> <Hphob>
-5.781054

> <VwInt>
-25.956615

> <Dsolv>
21.088769

> <SolEl>
14.7818

> <Eintl>
7.557447

> <RecConf>
ND

> <projPath>
VHL_maps/

> <NAME_>
VHL_4MKC_7.pdb

$$$$
