VHL_5T8E_45.pdb
  MOLSOFT 04032206423D

 68 70  0  0  1  0  0  0  0  0999 V2000
   18.4429   -6.9439   -5.4066 C   0  0  0  0  0  0  0  0  0  0  0  0
   17.2481   -6.0316   -5.3349 C   0  0  0  0  0  0  0  0  0  0  0  0
   16.1465   -6.4154   -5.6951 O   0  0  0  0  0  0  0  0  0  0  0  0
   17.5318   -4.7767   -4.8288 N   0  0  0  0  0  0  0  0  0  0  0  0
   16.5421   -3.7012   -4.7099 C   0  0  1  0  0  0  0  0  0  0  0  0
   15.9046   -3.5933   -3.2850 C   0  0  0  0  0  0  0  0  0  0  0  0
   15.4512   -4.9696   -2.7747 C   0  0  0  0  0  0  0  0  0  0  0  0
   16.8848   -3.0131   -2.2530 C   0  0  0  0  0  0  0  0  0  0  0  0
   14.6587   -2.6940   -3.3245 C   0  0  0  0  0  0  0  0  0  0  0  0
   17.2239   -2.3943   -5.1587 C   0  0  0  0  0  0  0  0  0  0  0  0
   18.3683   -2.1292   -4.8202 O   0  0  0  0  0  0  0  0  0  0  0  0
   16.4778   -1.4779   -5.9007 N   0  0  0  0  0  0  0  0  0  0  0  0
   17.0121   -0.1550   -6.2014 C   0  0  2  0  0  0  0  0  0  0  0  0
   17.1002    0.7721   -4.9955 C   0  0  0  0  0  0  0  0  0  0  0  0
   16.3814    0.6703   -4.0106 O   0  0  0  0  0  0  0  0  0  0  0  0
   18.0042    1.7975   -5.1990 N   0  0  0  0  0  0  0  0  0  0  0  0
   18.0323    2.9767   -4.3569 C   0  0  1  0  0  0  0  0  0  0  0  0
   19.4651    3.4691   -4.1652 C   0  0  0  0  0  0  0  0  0  0  0  0
   17.1254    4.0354   -4.9527 C   0  0  0  0  0  0  0  0  0  0  0  0
   15.9579    4.4087   -4.2924 C   0  0  0  0  0  0  0  0  0  0  0  0
   15.1121    5.3669   -4.8240 C   0  0  0  0  0  0  0  0  0  0  0  0
   15.4061    5.9805   -6.0374 C   0  0  0  0  0  0  0  0  0  0  0  0
   14.5571    7.0358   -6.5717 C   0  0  0  0  0  0  0  0  0  0  0  0
   13.8989    7.1557   -7.7899 C   0  0  0  0  0  0  0  0  0  0  0  0
   13.8492    6.1559   -8.8809 C   0  0  0  0  0  0  0  0  0  0  0  0
   13.2307    8.3496   -7.9753 N   0  0  0  0  0  0  0  0  0  0  0  0
   13.3821    9.1064   -6.9119 C   0  0  0  0  0  0  0  0  0  0  0  0
   14.2891    8.4488   -5.6303 S   0  0  0  0  0  0  0  0  0  0  0  0
   16.5529    5.5879   -6.7177 C   0  0  0  0  0  0  0  0  0  0  0  0
   17.3992    4.6311   -6.1843 C   0  0  0  0  0  0  0  0  0  0  0  0
   16.0408    0.4590   -7.2041 C   0  0  0  0  0  0  0  0  0  0  0  0
   15.3949   -0.7421   -7.8565 C   0  0  1  0  0  0  0  0  0  0  0  0
   16.2055   -1.1997   -8.9477 O   0  0  0  0  0  0  0  0  0  0  0  0
   15.3391   -1.7795   -6.7435 C   0  0  0  0  0  0  0  0  0  0  0  0
   19.3757   -6.4083   -5.2103 H   0  0  0  0  0  0  0  0  0  0  0  0
   18.5010   -7.3786   -6.4080 H   0  0  0  0  0  0  0  0  0  0  0  0
   18.3242   -7.7426   -4.6700 H   0  0  0  0  0  0  0  0  0  0  0  0
   18.4817   -4.5766   -4.5391 H   0  0  0  0  0  0  0  0  0  0  0  0
   15.7671   -3.9434   -5.4238 H   0  0  0  0  0  0  0  0  0  0  0  0
   14.9586   -4.8947   -1.8001 H   0  0  0  0  0  0  0  0  0  0  0  0
   16.2891   -5.6609   -2.6513 H   0  0  0  0  0  0  0  0  0  0  0  0
   14.7347   -5.4276   -3.4583 H   0  0  0  0  0  0  0  0  0  0  0  0
   16.4600   -3.0338   -1.2440 H   0  0  0  0  0  0  0  0  0  0  0  0
   17.1388   -1.9705   -2.4663 H   0  0  0  0  0  0  0  0  0  0  0  0
   17.8171   -3.5800   -2.2221 H   0  0  0  0  0  0  0  0  0  0  0  0
   14.9144   -1.6669   -3.6045 H   0  0  0  0  0  0  0  0  0  0  0  0
   14.1673   -2.6489   -2.3476 H   0  0  0  0  0  0  0  0  0  0  0  0
   13.9214   -3.0432   -4.0514 H   0  0  0  0  0  0  0  0  0  0  0  0
   18.0085   -0.2776   -6.6305 H   0  0  0  0  0  0  0  0  0  0  0  0
   18.5674    1.8043   -6.0428 H   0  0  0  0  0  0  0  0  0  0  0  0
   17.6484    2.6939   -3.3704 H   0  0  0  0  0  0  0  0  0  0  0  0
   20.0694    2.7040   -3.6682 H   0  0  0  0  0  0  0  0  0  0  0  0
   19.4947    4.3740   -3.5502 H   0  0  0  0  0  0  0  0  0  0  0  0
   19.9555    3.6952   -5.1176 H   0  0  0  0  0  0  0  0  0  0  0  0
   15.6935    3.9484   -3.3445 H   0  0  0  0  0  0  0  0  0  0  0  0
   14.2125    5.6323   -4.2757 H   0  0  0  0  0  0  0  0  0  0  0  0
   14.8148    6.0894   -9.3904 H   0  0  0  0  0  0  0  0  0  0  0  0
   13.0961    6.4259   -9.6265 H   0  0  0  0  0  0  0  0  0  0  0  0
   13.5922    5.1648   -8.4953 H   0  0  0  0  0  0  0  0  0  0  0  0
   12.9623   10.0964   -6.8346 H   0  0  0  0  0  0  0  0  0  0  0  0
   16.8126    6.0481   -7.6669 H   0  0  0  0  0  0  0  0  0  0  0  0
   18.2870    4.3547   -6.7449 H   0  0  0  0  0  0  0  0  0  0  0  0
   15.2775    1.0592   -6.6950 H   0  0  0  0  0  0  0  0  0  0  0  0
   16.5567    1.1074   -7.9203 H   0  0  0  0  0  0  0  0  0  0  0  0
   14.4032   -0.5077   -8.2428 H   0  0  0  0  0  0  0  0  0  0  0  0
   17.1371   -1.1335   -8.6672 H   0  0  0  0  0  0  0  0  0  0  0  0
   15.4060   -2.7978   -7.1337 H   0  0  0  0  0  0  0  0  0  0  0  0
   14.4369   -1.6635   -6.1349 H   0  0  0  0  0  0  0  0  0  0  0  0
  1 35  1  0  0  0  0
  1 36  1  0  0  0  0
  1 37  1  0  0  0  0
  1  2  1  0  0  0  0
  2  3  2  0  0  0  0
  2  4  1  0  0  0  0
  4 38  1  0  0  0  0
  5  4  1  0  0  0  0
  5 39  1  0  0  0  0
  5  6  1  0  0  0  0
  5 10  1  0  0  0  0
  6  7  1  0  0  0  0
  6  8  1  0  0  0  0
  6  9  1  0  0  0  0
  7 40  1  0  0  0  0
  7 41  1  0  0  0  0
  7 42  1  0  0  0  0
  8 43  1  0  0  0  0
  8 44  1  0  0  0  0
  8 45  1  0  0  0  0
  9 46  1  0  0  0  0
  9 47  1  0  0  0  0
  9 48  1  0  0  0  0
 10 11  2  0  0  0  0
 10 12  1  0  0  0  0
 12 34  1  0  0  0  0
 13 12  1  0  0  0  0
 13 31  1  0  0  0  0
 13 49  1  0  0  0  0
 13 14  1  0  0  0  0
 14 15  2  0  0  0  0
 14 16  1  0  0  0  0
 16 50  1  0  0  0  0
 17 16  1  0  0  0  0
 17 51  1  0  0  0  0
 17 18  1  0  0  0  0
 17 19  1  0  0  0  0
 18 52  1  0  0  0  0
 18 53  1  0  0  0  0
 18 54  1  0  0  0  0
 19 20  1  0  0  0  0
 19 30  2  0  0  0  0
 20 55  1  0  0  0  0
 20 21  2  0  0  0  0
 21 56  1  0  0  0  0
 21 22  1  0  0  0  0
 22 29  2  0  0  0  0
 22 23  1  0  0  0  0
 23 24  2  0  0  0  0
 23 28  1  0  0  0  0
 24 25  1  0  0  0  0
 24 26  1  0  0  0  0
 25 57  1  0  0  0  0
 25 58  1  0  0  0  0
 25 59  1  0  0  0  0
 26 27  2  0  0  0  0
 27 60  1  0  0  0  0
 27 28  1  0  0  0  0
 29 61  1  0  0  0  0
 29 30  1  0  0  0  0
 30 62  1  0  0  0  0
 32 31  1  0  0  0  0
 31 63  1  0  0  0  0
 31 64  1  0  0  0  0
 32 34  1  0  0  0  0
 32 65  1  0  0  0  0
 32 33  1  0  0  0  0
 33 66  1  0  0  0  0
 34 67  1  0  0  0  0
 34 68  1  0  0  0  0
M  ZZC   1 c1
M  ZZC   2 c2
M  ZZC   3 o1
M  ZZC   4 n1
M  ZZC   5 c3
M  ZZC   6 c4
M  ZZC   7 c5
M  ZZC   8 c6
M  ZZC   9 c7
M  ZZC  10 c8
M  ZZC  11 o2
M  ZZC  12 n2
M  ZZC  13 c9
M  ZZC  14 c10
M  ZZC  15 o3
M  ZZC  16 n3
M  ZZC  17 c11
M  ZZC  18 c12
M  ZZC  19 c13
M  ZZC  20 c14
M  ZZC  21 c15
M  ZZC  22 c16
M  ZZC  23 c17
M  ZZC  24 c18
M  ZZC  25 c19
M  ZZC  26 n4
M  ZZC  27 c20
M  ZZC  28 s1
M  ZZC  29 c21
M  ZZC  30 c22
M  ZZC  31 c23
M  ZZC  32 c24
M  ZZC  33 o4
M  ZZC  34 c25
M  ZZC  35 h11
M  ZZC  36 h12
M  ZZC  37 h13
M  ZZC  38 h01
M  ZZC  39 h31
M  ZZC  40 h51
M  ZZC  41 h52
M  ZZC  42 h53
M  ZZC  43 h61
M  ZZC  44 h62
M  ZZC  45 h63
M  ZZC  46 h71
M  ZZC  47 h72
M  ZZC  48 h73
M  ZZC  49 h91
M  ZZC  50 h02
M  ZZC  51 h111
M  ZZC  52 h121
M  ZZC  53 h122
M  ZZC  54 h123
M  ZZC  55 h141
M  ZZC  56 h151
M  ZZC  57 h191
M  ZZC  58 h192
M  ZZC  59 h193
M  ZZC  60 h201
M  ZZC  61 h211
M  ZZC  62 h221
M  ZZC  63 h231
M  ZZC  64 h232
M  ZZC  65 h241
M  ZZC  66 h41
M  ZZC  67 h251
M  ZZC  68 h252
M  ZZM   1 1
M  ZZI   1 111
M  ZZM   2 3
M  ZZI   2 121
M  ZZM   3 7
M  ZZI   3 81
M  ZZM   4 10
M  ZZI   4 211
M  ZZM   5 1
M  ZZI   5 113
M  ZZM   6 1
M  ZZI   6 110
M  ZZM   7 1
M  ZZI   7 111
M  ZZM   8 1
M  ZZI   8 111
M  ZZM   9 1
M  ZZI   9 111
M  ZZM  10 3
M  ZZI  10 121
M  ZZM  11 7
M  ZZI  11 81
M  ZZM  12 10
M  ZZI  12 192
M  ZZM  13 1
M  ZZI  13 113
M  ZZM  14 3
M  ZZI  14 121
M  ZZM  15 7
M  ZZI  15 81
M  ZZM  16 10
M  ZZI  16 211
M  ZZM  17 1
M  ZZI  17 113
M  ZZM  18 1
M  ZZI  18 111
M  ZZM  19 37
M  ZZI  19 124
M  ZZM  20 37
M  ZZI  20 125
M  ZZM  21 37
M  ZZI  21 125
M  ZZM  22 37
M  ZZI  22 124
M  ZZM  23 63
M  ZZI  23 104
M  ZZM  24 64
M  ZZI  24 105
M  ZZM  25 1
M  ZZI  25 111
M  ZZM  26 66
M  ZZI  26 222
M  ZZM  27 63
M  ZZI  27 104
M  ZZM  28 44
M  ZZI  28 248
M  ZZM  29 37
M  ZZI  29 125
M  ZZM  30 37
M  ZZI  30 125
M  ZZM  31 1
M  ZZI  31 112
M  ZZM  32 1
M  ZZI  32 113
M  ZZM  33 6
M  ZZI  33 60
M  ZZM  34 1
M  ZZI  34 112
M  ZZM  35 5
M  ZZI  35 1
M  ZZM  36 5
M  ZZI  36 1
M  ZZM  37 5
M  ZZI  37 1
M  ZZM  38 28
M  ZZI  38 11
M  ZZM  39 5
M  ZZI  39 1
M  ZZM  40 5
M  ZZI  40 1
M  ZZM  41 5
M  ZZI  41 1
M  ZZM  42 5
M  ZZI  42 1
M  ZZM  43 5
M  ZZI  43 1
M  ZZM  44 5
M  ZZI  44 1
M  ZZM  45 5
M  ZZI  45 1
M  ZZM  46 5
M  ZZI  46 1
M  ZZM  47 5
M  ZZI  47 1
M  ZZM  48 5
M  ZZI  48 1
M  ZZM  49 5
M  ZZI  49 1
M  ZZM  50 28
M  ZZI  50 11
M  ZZM  51 5
M  ZZI  51 1
M  ZZM  52 5
M  ZZI  52 1
M  ZZM  53 5
M  ZZI  53 1
M  ZZM  54 5
M  ZZI  54 1
M  ZZM  55 5
M  ZZI  55 1
M  ZZM  56 5
M  ZZI  56 1
M  ZZM  57 5
M  ZZI  57 1
M  ZZM  58 5
M  ZZI  58 1
M  ZZM  59 5
M  ZZI  59 1
M  ZZM  60 5
M  ZZI  60 1
M  ZZM  61 5
M  ZZI  61 1
M  ZZM  62 5
M  ZZI  62 1
M  ZZM  63 5
M  ZZI  63 1
M  ZZM  64 5
M  ZZI  64 1
M  ZZM  65 5
M  ZZI  65 1
M  ZZM  66 21
M  ZZI  66 20
M  ZZM  67 5
M  ZZI  67 1
M  ZZM  68 5
M  ZZI  68 1
M  END
> <IX>
1

> <NAME>
VHL_5T8E_45.pdb

> <Score>
-22.510171

> <Natom>
68

> <Nflex>
8

> <Hbond>
-7.992312

> <Hphob>
-6.375675

> <VwInt>
-31.128927

> <Dsolv>
22.196833

> <SolEl>
12.63902

> <Eintl>
5.536049

> <RecConf>
ND

> <projPath>
VHL_maps/

> <NAME_>
VHL_5T8E_45.pdb

$$$$
