VHL_3MXF_25.pdb
  MOLSOFT 04032206373D

 65 67  0  0  1  0  0  0  0  0999 V2000
   18.1125   -6.6545   -5.1167 C   0  0  0  0  0  0  0  0  0  0  0  0
   16.8992   -5.7788   -4.9625 C   0  0  0  0  0  0  0  0  0  0  0  0
   15.8139   -6.1346   -5.3879 O   0  0  0  0  0  0  0  0  0  0  0  0
   17.1427   -4.6029   -4.2804 N   0  0  0  0  0  0  0  0  0  0  0  0
   16.1344   -3.5641   -4.0126 C   0  0  1  0  0  0  0  0  0  0  0  0
   15.8947   -3.3692   -2.4860 C   0  0  0  0  0  0  0  0  0  0  0  0
   15.4290   -4.7077   -1.9005 C   0  0  0  0  0  0  0  0  0  0  0  0
   17.1606   -2.9071   -1.7498 C   0  0  0  0  0  0  0  0  0  0  0  0
   14.7905   -2.3486   -2.1863 C   0  0  0  0  0  0  0  0  0  0  0  0
   16.6276   -2.3251   -4.7897 C   0  0  0  0  0  0  0  0  0  0  0  0
   17.8223   -2.0565   -4.8453 O   0  0  0  0  0  0  0  0  0  0  0  0
   15.6747   -1.5544   -5.4637 N   0  0  0  0  0  0  0  0  0  0  0  0
   16.0673   -0.6434   -6.5284 C   0  0  2  0  0  0  0  0  0  0  0  0
   16.4492    0.7491   -6.0193 C   0  0  0  0  0  0  0  0  0  0  0  0
   15.9274    1.2686   -5.0421 O   0  0  0  0  0  0  0  0  0  0  0  0
   17.3799    1.3844   -6.8203 N   0  0  0  0  0  0  0  0  0  0  0  0
   17.8295    2.7405   -6.5518 C   0  0  0  0  0  0  0  0  0  0  0  0
   19.2404    3.0197   -7.0125 C   0  0  0  0  0  0  0  0  0  0  0  0
   19.6557    4.3248   -7.2687 C   0  0  0  0  0  0  0  0  0  0  0  0
   20.9654    4.6029   -7.6350 C   0  0  0  0  0  0  0  0  0  0  0  0
   21.8969    3.5789   -7.7532 C   0  0  0  0  0  0  0  0  0  0  0  0
   23.2819    3.8390   -8.1112 C   0  0  0  0  0  0  0  0  0  0  0  0
   24.3497    4.2573   -7.3301 C   0  0  0  0  0  0  0  0  0  0  0  0
   24.3185    4.5884   -5.8876 C   0  0  0  0  0  0  0  0  0  0  0  0
   25.5597    4.3371   -7.9901 N   0  0  0  0  0  0  0  0  0  0  0  0
   25.3981    4.0054   -9.2514 C   0  0  0  0  0  0  0  0  0  0  0  0
   23.8124    3.5904   -9.7262 S   0  0  0  0  0  0  0  0  0  0  0  0
   21.4836    2.2816   -7.4967 C   0  0  0  0  0  0  0  0  0  0  0  0
   20.1831    2.0062   -7.1286 C   0  0  0  0  0  0  0  0  0  0  0  0
   14.8311   -0.5726   -7.4106 C   0  0  0  0  0  0  0  0  0  0  0  0
   13.6780   -0.6934   -6.4252 C   0  0  1  0  0  0  0  0  0  0  0  0
   12.5371   -1.3109   -7.0152 O   0  0  0  0  0  0  0  0  0  0  0  0
   14.2286   -1.5820   -5.3228 C   0  0  0  0  0  0  0  0  0  0  0  0
   19.0207   -6.0545   -5.2263 H   0  0  0  0  0  0  0  0  0  0  0  0
   18.0010   -7.2766   -6.0098 H   0  0  0  0  0  0  0  0  0  0  0  0
   18.1991   -7.3001   -4.2395 H   0  0  0  0  0  0  0  0  0  0  0  0
   18.1034   -4.3978   -4.0303 H   0  0  0  0  0  0  0  0  0  0  0  0
   15.2019   -3.9102   -4.4586 H   0  0  0  0  0  0  0  0  0  0  0  0
   15.1735   -4.6046   -0.8431 H   0  0  0  0  0  0  0  0  0  0  0  0
   16.1994   -5.4762   -1.9851 H   0  0  0  0  0  0  0  0  0  0  0  0
   14.5397   -5.0846   -2.4157 H   0  0  0  0  0  0  0  0  0  0  0  0
   16.9851   -2.8163   -0.6730 H   0  0  0  0  0  0  0  0  0  0  0  0
   17.5051   -1.9311   -2.1054 H   0  0  0  0  0  0  0  0  0  0  0  0
   17.9810   -3.6109   -1.8770 H   0  0  0  0  0  0  0  0  0  0  0  0
   15.0731   -1.3415   -2.5049 H   0  0  0  0  0  0  0  0  0  0  0  0
   14.5849   -2.2868   -1.1125 H   0  0  0  0  0  0  0  0  0  0  0  0
   13.8491   -2.6253   -2.6706 H   0  0  0  0  0  0  0  0  0  0  0  0
   16.9153   -1.0658   -7.0773 H   0  0  0  0  0  0  0  0  0  0  0  0
   17.7732    0.8852   -7.6133 H   0  0  0  0  0  0  0  0  0  0  0  0
   17.1292    3.4030   -7.0721 H   0  0  0  0  0  0  0  0  0  0  0  0
   17.7516    2.9423   -5.4782 H   0  0  0  0  0  0  0  0  0  0  0  0
   18.9521    5.1472   -7.1763 H   0  0  0  0  0  0  0  0  0  0  0  0
   21.2564    5.6315   -7.8268 H   0  0  0  0  0  0  0  0  0  0  0  0
   25.2787    4.9942   -5.5562 H   0  0  0  0  0  0  0  0  0  0  0  0
   24.1125    3.6956   -5.2926 H   0  0  0  0  0  0  0  0  0  0  0  0
   23.5480    5.3342   -5.6724 H   0  0  0  0  0  0  0  0  0  0  0  0
   26.2170    3.9962   -9.9565 H   0  0  0  0  0  0  0  0  0  0  0  0
   22.1818    1.4584   -7.5842 H   0  0  0  0  0  0  0  0  0  0  0  0
   19.9135    0.9754   -6.9314 H   0  0  0  0  0  0  0  0  0  0  0  0
   14.7658    0.3422   -8.0090 H   0  0  0  0  0  0  0  0  0  0  0  0
   14.8203   -1.4184   -8.1067 H   0  0  0  0  0  0  0  0  0  0  0  0
   13.3839    0.2849   -6.0280 H   0  0  0  0  0  0  0  0  0  0  0  0
   12.1900   -0.7167   -7.7050 H   0  0  0  0  0  0  0  0  0  0  0  0
   13.8466   -2.6034   -5.3583 H   0  0  0  0  0  0  0  0  0  0  0  0
   13.9566   -1.1559   -4.3571 H   0  0  0  0  0  0  0  0  0  0  0  0
  1 34  1  0  0  0  0
  1 35  1  0  0  0  0
  1 36  1  0  0  0  0
  1  2  1  0  0  0  0
  2  3  2  0  0  0  0
  2  4  1  0  0  0  0
  4 37  1  0  0  0  0
  5  4  1  0  0  0  0
  5 38  1  0  0  0  0
  5  6  1  0  0  0  0
  5 10  1  0  0  0  0
  6  7  1  0  0  0  0
  6  8  1  0  0  0  0
  6  9  1  0  0  0  0
  7 39  1  0  0  0  0
  7 40  1  0  0  0  0
  7 41  1  0  0  0  0
  8 42  1  0  0  0  0
  8 43  1  0  0  0  0
  8 44  1  0  0  0  0
  9 45  1  0  0  0  0
  9 46  1  0  0  0  0
  9 47  1  0  0  0  0
 10 11  2  0  0  0  0
 10 12  1  0  0  0  0
 12 33  1  0  0  0  0
 13 12  1  0  0  0  0
 13 30  1  0  0  0  0
 13 48  1  0  0  0  0
 13 14  1  0  0  0  0
 14 15  2  0  0  0  0
 14 16  1  0  0  0  0
 16 49  1  0  0  0  0
 16 17  1  0  0  0  0
 17 50  1  0  0  0  0
 17 51  1  0  0  0  0
 17 18  1  0  0  0  0
 18 19  1  0  0  0  0
 18 29  2  0  0  0  0
 19 52  1  0  0  0  0
 19 20  2  0  0  0  0
 20 53  1  0  0  0  0
 20 21  1  0  0  0  0
 21 28  2  0  0  0  0
 21 22  1  0  0  0  0
 22 23  2  0  0  0  0
 22 27  1  0  0  0  0
 23 24  1  0  0  0  0
 23 25  1  0  0  0  0
 24 54  1  0  0  0  0
 24 55  1  0  0  0  0
 24 56  1  0  0  0  0
 25 26  2  0  0  0  0
 26 57  1  0  0  0  0
 26 27  1  0  0  0  0
 28 58  1  0  0  0  0
 28 29  1  0  0  0  0
 29 59  1  0  0  0  0
 31 30  1  0  0  0  0
 30 60  1  0  0  0  0
 30 61  1  0  0  0  0
 31 33  1  0  0  0  0
 31 62  1  0  0  0  0
 31 32  1  0  0  0  0
 32 63  1  0  0  0  0
 33 64  1  0  0  0  0
 33 65  1  0  0  0  0
M  ZZC   1 c1
M  ZZC   2 c2
M  ZZC   3 o1
M  ZZC   4 n1
M  ZZC   5 c3
M  ZZC   6 c4
M  ZZC   7 c5
M  ZZC   8 c6
M  ZZC   9 c7
M  ZZC  10 c8
M  ZZC  11 o2
M  ZZC  12 n2
M  ZZC  13 c9
M  ZZC  14 c10
M  ZZC  15 o3
M  ZZC  16 n3
M  ZZC  17 c11
M  ZZC  18 c12
M  ZZC  19 c13
M  ZZC  20 c14
M  ZZC  21 c15
M  ZZC  22 c16
M  ZZC  23 c17
M  ZZC  24 c18
M  ZZC  25 n4
M  ZZC  26 c19
M  ZZC  27 s1
M  ZZC  28 c20
M  ZZC  29 c21
M  ZZC  30 c22
M  ZZC  31 c23
M  ZZC  32 o4
M  ZZC  33 c24
M  ZZC  34 h11
M  ZZC  35 h12
M  ZZC  36 h13
M  ZZC  37 h01
M  ZZC  38 h31
M  ZZC  39 h51
M  ZZC  40 h52
M  ZZC  41 h53
M  ZZC  42 h61
M  ZZC  43 h62
M  ZZC  44 h63
M  ZZC  45 h71
M  ZZC  46 h72
M  ZZC  47 h73
M  ZZC  48 h91
M  ZZC  49 h02
M  ZZC  50 h111
M  ZZC  51 h112
M  ZZC  52 h131
M  ZZC  53 h141
M  ZZC  54 h181
M  ZZC  55 h182
M  ZZC  56 h183
M  ZZC  57 h191
M  ZZC  58 h201
M  ZZC  59 h211
M  ZZC  60 h221
M  ZZC  61 h222
M  ZZC  62 h231
M  ZZC  63 h41
M  ZZC  64 h241
M  ZZC  65 h242
M  ZZM   1 1
M  ZZI   1 111
M  ZZM   2 3
M  ZZI   2 121
M  ZZM   3 7
M  ZZI   3 81
M  ZZM   4 10
M  ZZI   4 211
M  ZZM   5 1
M  ZZI   5 113
M  ZZM   6 1
M  ZZI   6 110
M  ZZM   7 1
M  ZZI   7 111
M  ZZM   8 1
M  ZZI   8 111
M  ZZM   9 1
M  ZZI   9 111
M  ZZM  10 3
M  ZZI  10 121
M  ZZM  11 7
M  ZZI  11 81
M  ZZM  12 10
M  ZZI  12 192
M  ZZM  13 1
M  ZZI  13 113
M  ZZM  14 3
M  ZZI  14 121
M  ZZM  15 7
M  ZZI  15 81
M  ZZM  16 10
M  ZZI  16 211
M  ZZM  17 1
M  ZZI  17 112
M  ZZM  18 37
M  ZZI  18 124
M  ZZM  19 37
M  ZZI  19 125
M  ZZM  20 37
M  ZZI  20 125
M  ZZM  21 37
M  ZZI  21 124
M  ZZM  22 63
M  ZZI  22 104
M  ZZM  23 64
M  ZZI  23 105
M  ZZM  24 1
M  ZZI  24 111
M  ZZM  25 66
M  ZZI  25 222
M  ZZM  26 63
M  ZZI  26 104
M  ZZM  27 44
M  ZZI  27 248
M  ZZM  28 37
M  ZZI  28 125
M  ZZM  29 37
M  ZZI  29 125
M  ZZM  30 1
M  ZZI  30 112
M  ZZM  31 1
M  ZZI  31 113
M  ZZM  32 6
M  ZZI  32 60
M  ZZM  33 1
M  ZZI  33 112
M  ZZM  34 5
M  ZZI  34 1
M  ZZM  35 5
M  ZZI  35 1
M  ZZM  36 5
M  ZZI  36 1
M  ZZM  37 28
M  ZZI  37 11
M  ZZM  38 5
M  ZZI  38 1
M  ZZM  39 5
M  ZZI  39 1
M  ZZM  40 5
M  ZZI  40 1
M  ZZM  41 5
M  ZZI  41 1
M  ZZM  42 5
M  ZZI  42 1
M  ZZM  43 5
M  ZZI  43 1
M  ZZM  44 5
M  ZZI  44 1
M  ZZM  45 5
M  ZZI  45 1
M  ZZM  46 5
M  ZZI  46 1
M  ZZM  47 5
M  ZZI  47 1
M  ZZM  48 5
M  ZZI  48 1
M  ZZM  49 28
M  ZZI  49 11
M  ZZM  50 5
M  ZZI  50 1
M  ZZM  51 5
M  ZZI  51 1
M  ZZM  52 5
M  ZZI  52 1
M  ZZM  53 5
M  ZZI  53 1
M  ZZM  54 5
M  ZZI  54 1
M  ZZM  55 5
M  ZZI  55 1
M  ZZM  56 5
M  ZZI  56 1
M  ZZM  57 5
M  ZZI  57 1
M  ZZM  58 5
M  ZZI  58 1
M  ZZM  59 5
M  ZZI  59 1
M  ZZM  60 5
M  ZZI  60 1
M  ZZM  61 5
M  ZZI  61 1
M  ZZM  62 5
M  ZZI  62 1
M  ZZM  63 21
M  ZZI  63 20
M  ZZM  64 5
M  ZZI  64 1
M  ZZM  65 5
M  ZZI  65 1
M  END
> <IX>
1

> <NAME>
VHL_3MXF_25.pdb

> <Score>
-11.845347

> <Natom>
65

> <Nflex>
8

> <Hbond>
-4.958676

> <Hphob>
-6.446962

> <VwInt>
-28.116376

> <Dsolv>
16.859662

> <SolEl>
16.784751

> <Eintl>
7.688768

> <RecConf>
ND

> <projPath>
VHL_maps/

> <NAME_>
VHL_3MXF_25.pdb

$$$$
