VHL_4CI3_1.pdb
  MOLSOFT 04032206383D

 65 67  0  0  1  0  0  0  0  0999 V2000
   15.8478   -6.1950   -5.4538 O   0  0  0  0  0  0  0  0  0  0  0  0
   16.9316   -5.8918   -4.9853 C   0  0  0  0  0  0  0  0  0  0  0  0
   17.1995   -4.7222   -4.3001 N   0  0  0  0  0  0  0  0  0  0  0  0
   16.2337   -3.6320   -4.0957 C   0  0  1  0  0  0  0  0  0  0  0  0
   15.8075   -3.4775   -2.6074 C   0  0  0  0  0  0  0  0  0  0  0  0
   15.2732   -4.8247   -2.1038 C   0  0  0  0  0  0  0  0  0  0  0  0
   16.9744   -3.0371   -1.7110 C   0  0  0  0  0  0  0  0  0  0  0  0
   14.6759   -2.4517   -2.4488 C   0  0  0  0  0  0  0  0  0  0  0  0
   16.9002   -2.3906   -4.7189 C   0  0  0  0  0  0  0  0  0  0  0  0
   18.1128   -2.2393   -4.6583 O   0  0  0  0  0  0  0  0  0  0  0  0
   16.1069   -1.4402   -5.3657 N   0  0  0  0  0  0  0  0  0  0  0  0
   16.7459   -0.4287   -6.2061 C   0  0  2  0  0  0  0  0  0  0  0  0
   17.3992    0.7195   -5.4446 C   0  0  0  0  0  0  0  0  0  0  0  0
   17.0817    1.0410   -4.3076 O   0  0  0  0  0  0  0  0  0  0  0  0
   18.3093    1.4078   -6.2255 N   0  0  0  0  0  0  0  0  0  0  0  0
   18.8886    2.6709   -5.8238 C   0  0  0  0  0  0  0  0  0  0  0  0
   18.1210    3.8247   -6.4172 C   0  0  0  0  0  0  0  0  0  0  0  0
   16.8546    4.1514   -5.9422 C   0  0  0  0  0  0  0  0  0  0  0  0
   16.1349    5.1972   -6.4914 C   0  0  0  0  0  0  0  0  0  0  0  0
   16.6622    5.9573   -7.5290 C   0  0  0  0  0  0  0  0  0  0  0  0
   15.9090    7.0807   -8.0756 C   0  0  0  0  0  0  0  0  0  0  0  0
   14.5975    7.1684   -8.5295 C   0  0  0  0  0  0  0  0  0  0  0  0
   13.5991    6.0785   -8.6193 C   0  0  0  0  0  0  0  0  0  0  0  0
   14.2048    8.4257   -8.9374 N   0  0  0  0  0  0  0  0  0  0  0  0
   15.2099    9.2644   -8.8253 C   0  0  0  0  0  0  0  0  0  0  0  0
   16.6596    8.6256   -8.1998 S   0  0  0  0  0  0  0  0  0  0  0  0
   17.9270    5.6264   -8.0107 C   0  0  0  0  0  0  0  0  0  0  0  0
   18.6450    4.5744   -7.4650 C   0  0  0  0  0  0  0  0  0  0  0  0
   15.6353    0.1211   -7.0983 C   0  0  0  0  0  0  0  0  0  0  0  0
   14.5606   -0.9426   -7.0152 C   0  0  1  0  0  0  0  0  0  0  0  0
   14.8825   -2.0066   -7.9103 O   0  0  0  0  0  0  0  0  0  0  0  0
   14.6745   -1.4467   -5.5903 C   0  0  0  0  0  0  0  0  0  0  0  0
   18.1133   -6.8135   -5.0992 C   0  0  0  0  0  0  0  0  0  0  0  0
   18.1534   -4.5604   -3.9995 H   0  0  0  0  0  0  0  0  0  0  0  0
   15.3508   -3.8905   -4.6739 H   0  0  0  0  0  0  0  0  0  0  0  0
   14.4268   -5.1715   -2.7051 H   0  0  0  0  0  0  0  0  0  0  0  0
   14.9325   -4.7501   -1.0685 H   0  0  0  0  0  0  0  0  0  0  0  0
   16.0368   -5.6045   -2.1382 H   0  0  0  0  0  0  0  0  0  0  0  0
   17.3533   -2.0492   -1.9903 H   0  0  0  0  0  0  0  0  0  0  0  0
   17.8098   -3.7351   -1.7626 H   0  0  0  0  0  0  0  0  0  0  0  0
   16.6701   -2.9799   -0.6609 H   0  0  0  0  0  0  0  0  0  0  0  0
   13.8134   -2.7073   -3.0720 H   0  0  0  0  0  0  0  0  0  0  0  0
   15.0014   -1.4416   -2.7117 H   0  0  0  0  0  0  0  0  0  0  0  0
   14.3203   -2.4063   -1.4142 H   0  0  0  0  0  0  0  0  0  0  0  0
   17.5056   -0.9315   -6.8089 H   0  0  0  0  0  0  0  0  0  0  0  0
   18.5568    1.0415   -7.1399 H   0  0  0  0  0  0  0  0  0  0  0  0
   18.9043    2.7490   -4.7312 H   0  0  0  0  0  0  0  0  0  0  0  0
   19.9279    2.6752   -6.1687 H   0  0  0  0  0  0  0  0  0  0  0  0
   16.4154    3.5869   -5.1247 H   0  0  0  0  0  0  0  0  0  0  0  0
   15.1561    5.4273   -6.0805 H   0  0  0  0  0  0  0  0  0  0  0  0
   12.7861    6.3389   -9.3036 H   0  0  0  0  0  0  0  0  0  0  0  0
   13.1538    5.8752   -7.6411 H   0  0  0  0  0  0  0  0  0  0  0  0
   14.0683    5.1568   -8.9720 H   0  0  0  0  0  0  0  0  0  0  0  0
   15.1360   10.3040   -9.1093 H   0  0  0  0  0  0  0  0  0  0  0  0
   18.3688    6.1889   -8.8287 H   0  0  0  0  0  0  0  0  0  0  0  0
   19.6276    4.3447   -7.8668 H   0  0  0  0  0  0  0  0  0  0  0  0
   15.2528    1.0747   -6.7162 H   0  0  0  0  0  0  0  0  0  0  0  0
   15.9920    0.2827   -8.1219 H   0  0  0  0  0  0  0  0  0  0  0  0
   13.5615   -0.5697   -7.2613 H   0  0  0  0  0  0  0  0  0  0  0  0
   15.7272   -2.3986   -7.6171 H   0  0  0  0  0  0  0  0  0  0  0  0
   14.2312   -2.4326   -5.4514 H   0  0  0  0  0  0  0  0  0  0  0  0
   14.2212   -0.7377   -4.8894 H   0  0  0  0  0  0  0  0  0  0  0  0
   18.0152   -7.4192   -6.0050 H   0  0  0  0  0  0  0  0  0  0  0  0
   18.1338   -7.4718   -4.2276 H   0  0  0  0  0  0  0  0  0  0  0  0
   19.0489   -6.2497   -5.1609 H   0  0  0  0  0  0  0  0  0  0  0  0
  1  2  2  0  0  0  0
  2  3  1  0  0  0  0
  2 33  1  0  0  0  0
  4  3  1  0  0  0  0
  3 34  1  0  0  0  0
  4  5  1  0  0  0  0
  4 35  1  0  0  0  0
  4  9  1  0  0  0  0
  5  6  1  0  0  0  0
  5  7  1  0  0  0  0
  5  8  1  0  0  0  0
  6 36  1  0  0  0  0
  6 37  1  0  0  0  0
  6 38  1  0  0  0  0
  7 39  1  0  0  0  0
  7 40  1  0  0  0  0
  7 41  1  0  0  0  0
  8 42  1  0  0  0  0
  8 43  1  0  0  0  0
  8 44  1  0  0  0  0
  9 10  2  0  0  0  0
  9 11  1  0  0  0  0
 11 32  1  0  0  0  0
 12 11  1  0  0  0  0
 12 29  1  0  0  0  0
 12 45  1  0  0  0  0
 12 13  1  0  0  0  0
 13 14  2  0  0  0  0
 13 15  1  0  0  0  0
 15 46  1  0  0  0  0
 15 16  1  0  0  0  0
 16 47  1  0  0  0  0
 16 48  1  0  0  0  0
 16 17  1  0  0  0  0
 17 18  1  0  0  0  0
 17 28  2  0  0  0  0
 18 49  1  0  0  0  0
 18 19  2  0  0  0  0
 19 50  1  0  0  0  0
 19 20  1  0  0  0  0
 20 27  2  0  0  0  0
 20 21  1  0  0  0  0
 21 22  2  0  0  0  0
 21 26  1  0  0  0  0
 22 23  1  0  0  0  0
 22 24  1  0  0  0  0
 23 51  1  0  0  0  0
 23 52  1  0  0  0  0
 23 53  1  0  0  0  0
 24 25  2  0  0  0  0
 25 54  1  0  0  0  0
 25 26  1  0  0  0  0
 27 55  1  0  0  0  0
 27 28  1  0  0  0  0
 28 56  1  0  0  0  0
 30 29  1  0  0  0  0
 29 57  1  0  0  0  0
 29 58  1  0  0  0  0
 30 32  1  0  0  0  0
 30 59  1  0  0  0  0
 30 31  1  0  0  0  0
 31 60  1  0  0  0  0
 32 61  1  0  0  0  0
 32 62  1  0  0  0  0
 33 63  1  0  0  0  0
 33 64  1  0  0  0  0
 33 65  1  0  0  0  0
M  ZZC   1 o1
M  ZZC   2 c1
M  ZZC   3 n1
M  ZZC   4 c2
M  ZZC   5 c3
M  ZZC   6 c4
M  ZZC   7 c5
M  ZZC   8 c6
M  ZZC   9 c7
M  ZZC  10 o2
M  ZZC  11 n2
M  ZZC  12 c8
M  ZZC  13 c9
M  ZZC  14 o3
M  ZZC  15 n3
M  ZZC  16 c10
M  ZZC  17 c11
M  ZZC  18 c12
M  ZZC  19 c13
M  ZZC  20 c14
M  ZZC  21 c15
M  ZZC  22 c16
M  ZZC  23 c17
M  ZZC  24 n4
M  ZZC  25 c18
M  ZZC  26 s1
M  ZZC  27 c19
M  ZZC  28 c20
M  ZZC  29 c21
M  ZZC  30 c22
M  ZZC  31 o4
M  ZZC  32 c23
M  ZZC  33 c24
M  ZZC  34 h11
M  ZZC  35 h21
M  ZZC  36 h41
M  ZZC  37 h42
M  ZZC  38 h43
M  ZZC  39 h51
M  ZZC  40 h52
M  ZZC  41 h53
M  ZZC  42 h61
M  ZZC  43 h62
M  ZZC  44 h63
M  ZZC  45 h81
M  ZZC  46 h31
M  ZZC  47 h101
M  ZZC  48 h102
M  ZZC  49 h121
M  ZZC  50 h131
M  ZZC  51 h171
M  ZZC  52 h172
M  ZZC  53 h173
M  ZZC  54 h181
M  ZZC  55 h191
M  ZZC  56 h201
M  ZZC  57 h211
M  ZZC  58 h212
M  ZZC  59 h221
M  ZZC  60 h01
M  ZZC  61 h231
M  ZZC  62 h232
M  ZZC  63 h241
M  ZZC  64 h242
M  ZZC  65 h243
M  ZZM   1 7
M  ZZI   1 81
M  ZZM   2 3
M  ZZI   2 121
M  ZZM   3 10
M  ZZI   3 211
M  ZZM   4 1
M  ZZI   4 113
M  ZZM   5 1
M  ZZI   5 110
M  ZZM   6 1
M  ZZI   6 111
M  ZZM   7 1
M  ZZI   7 111
M  ZZM   8 1
M  ZZI   8 111
M  ZZM   9 3
M  ZZI   9 121
M  ZZM  10 7
M  ZZI  10 81
M  ZZM  11 10
M  ZZI  11 192
M  ZZM  12 1
M  ZZI  12 113
M  ZZM  13 3
M  ZZI  13 121
M  ZZM  14 7
M  ZZI  14 81
M  ZZM  15 10
M  ZZI  15 211
M  ZZM  16 1
M  ZZI  16 112
M  ZZM  17 37
M  ZZI  17 124
M  ZZM  18 37
M  ZZI  18 125
M  ZZM  19 37
M  ZZI  19 125
M  ZZM  20 37
M  ZZI  20 124
M  ZZM  21 63
M  ZZI  21 104
M  ZZM  22 64
M  ZZI  22 105
M  ZZM  23 1
M  ZZI  23 111
M  ZZM  24 66
M  ZZI  24 222
M  ZZM  25 63
M  ZZI  25 104
M  ZZM  26 44
M  ZZI  26 248
M  ZZM  27 37
M  ZZI  27 125
M  ZZM  28 37
M  ZZI  28 125
M  ZZM  29 1
M  ZZI  29 112
M  ZZM  30 1
M  ZZI  30 113
M  ZZM  31 6
M  ZZI  31 60
M  ZZM  32 1
M  ZZI  32 112
M  ZZM  33 1
M  ZZI  33 111
M  ZZM  34 28
M  ZZI  34 11
M  ZZM  35 5
M  ZZI  35 1
M  ZZM  36 5
M  ZZI  36 1
M  ZZM  37 5
M  ZZI  37 1
M  ZZM  38 5
M  ZZI  38 1
M  ZZM  39 5
M  ZZI  39 1
M  ZZM  40 5
M  ZZI  40 1
M  ZZM  41 5
M  ZZI  41 1
M  ZZM  42 5
M  ZZI  42 1
M  ZZM  43 5
M  ZZI  43 1
M  ZZM  44 5
M  ZZI  44 1
M  ZZM  45 5
M  ZZI  45 1
M  ZZM  46 28
M  ZZI  46 11
M  ZZM  47 5
M  ZZI  47 1
M  ZZM  48 5
M  ZZI  48 1
M  ZZM  49 5
M  ZZI  49 1
M  ZZM  50 5
M  ZZI  50 1
M  ZZM  51 5
M  ZZI  51 1
M  ZZM  52 5
M  ZZI  52 1
M  ZZM  53 5
M  ZZI  53 1
M  ZZM  54 5
M  ZZI  54 1
M  ZZM  55 5
M  ZZI  55 1
M  ZZM  56 5
M  ZZI  56 1
M  ZZM  57 5
M  ZZI  57 1
M  ZZM  58 5
M  ZZI  58 1
M  ZZM  59 5
M  ZZI  59 1
M  ZZM  60 21
M  ZZI  60 20
M  ZZM  61 5
M  ZZI  61 1
M  ZZM  62 5
M  ZZI  62 1
M  ZZM  63 5
M  ZZI  63 1
M  ZZM  64 5
M  ZZI  64 1
M  ZZM  65 5
M  ZZI  65 1
M  END
> <IX>
1

> <NAME>
VHL_4CI3_1.pdb

> <Score>
-10.929926

> <Natom>
65

> <Nflex>
8

> <Hbond>
-5.619119

> <Hphob>
-6.491905

> <VwInt>
-29.292412

> <Dsolv>
21.928166

> <SolEl>
19.227077

> <Eintl>
4.987394

> <RecConf>
ND

> <projPath>
VHL_maps/

> <NAME_>
VHL_4CI3_1.pdb

$$$$
