VHL_6MX8_10.pdb
  MOLSOFT 04032206433D

 65 67  0  0  1  0  0  0  0  0999 V2000
   18.3783   -6.9384   -5.3371 C   0  0  0  0  0  0  0  0  0  0  0  0
   17.1985   -6.0065   -5.2920 C   0  0  0  0  0  0  0  0  0  0  0  0
   16.0970   -6.3741   -5.6680 O   0  0  0  0  0  0  0  0  0  0  0  0
   17.4915   -4.7600   -4.7718 N   0  0  0  0  0  0  0  0  0  0  0  0
   16.5151   -3.6719   -4.6556 C   0  0  1  0  0  0  0  0  0  0  0  0
   15.8914   -3.5480   -3.2275 C   0  0  0  0  0  0  0  0  0  0  0  0
   14.6637   -2.6236   -3.2607 C   0  0  0  0  0  0  0  0  0  0  0  0
   15.4147   -4.9168   -2.7163 C   0  0  0  0  0  0  0  0  0  0  0  0
   16.8911   -2.9865   -2.2040 C   0  0  0  0  0  0  0  0  0  0  0  0
   17.2079   -2.3784   -5.1264 C   0  0  0  0  0  0  0  0  0  0  0  0
   18.3583   -2.1225   -4.8017 O   0  0  0  0  0  0  0  0  0  0  0  0
   16.4670   -1.4644   -5.8767 N   0  0  0  0  0  0  0  0  0  0  0  0
   17.0263   -0.1639   -6.2259 C   0  0  2  0  0  0  0  0  0  0  0  0
   17.2017    0.8054   -5.0647 C   0  0  0  0  0  0  0  0  0  0  0  0
   16.5445    0.7565   -4.0337 O   0  0  0  0  0  0  0  0  0  0  0  0
   18.1065    1.8043   -5.3700 N   0  0  0  0  0  0  0  0  0  0  0  0
   18.2183    3.0094   -4.5825 C   0  0  0  0  0  0  0  0  0  0  0  0
   17.2779    4.0593   -5.1157 C   0  0  0  0  0  0  0  0  0  0  0  0
   17.5655    4.7367   -6.2978 C   0  0  0  0  0  0  0  0  0  0  0  0
   16.6885    5.6811   -6.8038 C   0  0  0  0  0  0  0  0  0  0  0  0
   15.5034    5.9768   -6.1388 C   0  0  0  0  0  0  0  0  0  0  0  0
   14.6171    7.0149   -6.6433 C   0  0  0  0  0  0  0  0  0  0  0  0
   13.9334    7.1294   -7.8473 C   0  0  0  0  0  0  0  0  0  0  0  0
   13.8952    6.1399   -8.9478 C   0  0  0  0  0  0  0  0  0  0  0  0
   13.2270    8.3051   -8.0059 N   0  0  0  0  0  0  0  0  0  0  0  0
   13.3743    9.0523   -6.9351 C   0  0  0  0  0  0  0  0  0  0  0  0
   14.3231    8.4056   -5.6774 S   0  0  0  0  0  0  0  0  0  0  0  0
   15.2017    5.2809   -4.9722 C   0  0  0  0  0  0  0  0  0  0  0  0
   16.0760    4.3320   -4.4701 C   0  0  0  0  0  0  0  0  0  0  0  0
   16.0367    0.4498   -7.2102 C   0  0  0  0  0  0  0  0  0  0  0  0
   15.3756   -0.7535   -7.8403 C   0  0  1  0  0  0  0  0  0  0  0  0
   16.1761   -1.2300   -8.9313 O   0  0  0  0  0  0  0  0  0  0  0  0
   15.3234   -1.7739   -6.7111 C   0  0  0  0  0  0  0  0  0  0  0  0
   19.3245   -6.3926   -5.2762 H   0  0  0  0  0  0  0  0  0  0  0  0
   18.3623   -7.4919   -6.2799 H   0  0  0  0  0  0  0  0  0  0  0  0
   18.3070   -7.6414   -4.5042 H   0  0  0  0  0  0  0  0  0  0  0  0
   18.4416   -4.5748   -4.4728 H   0  0  0  0  0  0  0  0  0  0  0  0
   15.7268   -3.9108   -5.3560 H   0  0  0  0  0  0  0  0  0  0  0  0
   14.9272   -1.5998   -3.5388 H   0  0  0  0  0  0  0  0  0  0  0  0
   14.1767   -2.5691   -2.2816 H   0  0  0  0  0  0  0  0  0  0  0  0
   13.9144   -2.9803   -3.9746 H   0  0  0  0  0  0  0  0  0  0  0  0
   14.9282   -4.8338   -1.7394 H   0  0  0  0  0  0  0  0  0  0  0  0
   16.2411   -5.6228   -2.5976 H   0  0  0  0  0  0  0  0  0  0  0  0
   14.6880   -5.3632   -3.3980 H   0  0  0  0  0  0  0  0  0  0  0  0
   16.4715   -2.9925   -1.1926 H   0  0  0  0  0  0  0  0  0  0  0  0
   17.1688   -1.9514   -2.4243 H   0  0  0  0  0  0  0  0  0  0  0  0
   17.8099   -3.5752   -2.1751 H   0  0  0  0  0  0  0  0  0  0  0  0
   17.9988   -0.3321   -6.6906 H   0  0  0  0  0  0  0  0  0  0  0  0
   18.6420    1.7518   -6.2302 H   0  0  0  0  0  0  0  0  0  0  0  0
   18.0068    2.7858   -3.5312 H   0  0  0  0  0  0  0  0  0  0  0  0
   19.2549    3.3573   -4.6441 H   0  0  0  0  0  0  0  0  0  0  0  0
   18.4867    4.5323   -6.8356 H   0  0  0  0  0  0  0  0  0  0  0  0
   16.9509    6.2068   -7.7177 H   0  0  0  0  0  0  0  0  0  0  0  0
   14.8762    6.0393   -9.4210 H   0  0  0  0  0  0  0  0  0  0  0  0
   13.1835    6.4435   -9.7214 H   0  0  0  0  0  0  0  0  0  0  0  0
   13.6010    5.1546   -8.5756 H   0  0  0  0  0  0  0  0  0  0  0  0
   12.9254   10.0278   -6.8381 H   0  0  0  0  0  0  0  0  0  0  0  0
   14.2740    5.4729   -4.4405 H   0  0  0  0  0  0  0  0  0  0  0  0
   15.8094    3.7985   -3.5619 H   0  0  0  0  0  0  0  0  0  0  0  0
   15.2860    1.0538   -6.6867 H   0  0  0  0  0  0  0  0  0  0  0  0
   16.5385    1.0930   -7.9412 H   0  0  0  0  0  0  0  0  0  0  0  0
   14.3817   -0.5184   -8.2207 H   0  0  0  0  0  0  0  0  0  0  0  0
   17.1098   -1.1729   -8.6560 H   0  0  0  0  0  0  0  0  0  0  0  0
   15.3872   -2.7974   -7.0884 H   0  0  0  0  0  0  0  0  0  0  0  0
   14.4239   -1.6481   -6.1004 H   0  0  0  0  0  0  0  0  0  0  0  0
  1 34  1  0  0  0  0
  1 35  1  0  0  0  0
  1 36  1  0  0  0  0
  1  2  1  0  0  0  0
  2  3  2  0  0  0  0
  2  4  1  0  0  0  0
  4 37  1  0  0  0  0
  5  4  1  0  0  0  0
  5 38  1  0  0  0  0
  5  6  1  0  0  0  0
  5 10  1  0  0  0  0
  6  7  1  0  0  0  0
  6  8  1  0  0  0  0
  6  9  1  0  0  0  0
  7 39  1  0  0  0  0
  7 40  1  0  0  0  0
  7 41  1  0  0  0  0
  8 42  1  0  0  0  0
  8 43  1  0  0  0  0
  8 44  1  0  0  0  0
  9 45  1  0  0  0  0
  9 46  1  0  0  0  0
  9 47  1  0  0  0  0
 10 11  2  0  0  0  0
 10 12  1  0  0  0  0
 12 33  1  0  0  0  0
 13 12  1  0  0  0  0
 13 30  1  0  0  0  0
 13 48  1  0  0  0  0
 13 14  1  0  0  0  0
 14 15  2  0  0  0  0
 14 16  1  0  0  0  0
 16 49  1  0  0  0  0
 16 17  1  0  0  0  0
 17 50  1  0  0  0  0
 17 51  1  0  0  0  0
 17 18  1  0  0  0  0
 18 19  1  0  0  0  0
 18 29  2  0  0  0  0
 19 52  1  0  0  0  0
 19 20  2  0  0  0  0
 20 53  1  0  0  0  0
 20 21  1  0  0  0  0
 21 28  2  0  0  0  0
 21 22  1  0  0  0  0
 22 23  2  0  0  0  0
 22 27  1  0  0  0  0
 23 24  1  0  0  0  0
 23 25  1  0  0  0  0
 24 54  1  0  0  0  0
 24 55  1  0  0  0  0
 24 56  1  0  0  0  0
 25 26  2  0  0  0  0
 26 57  1  0  0  0  0
 26 27  1  0  0  0  0
 28 58  1  0  0  0  0
 28 29  1  0  0  0  0
 29 59  1  0  0  0  0
 31 30  1  0  0  0  0
 30 60  1  0  0  0  0
 30 61  1  0  0  0  0
 31 33  1  0  0  0  0
 31 62  1  0  0  0  0
 31 32  1  0  0  0  0
 32 63  1  0  0  0  0
 33 64  1  0  0  0  0
 33 65  1  0  0  0  0
M  ZZC   1 c1
M  ZZC   2 c2
M  ZZC   3 o1
M  ZZC   4 n1
M  ZZC   5 c3
M  ZZC   6 c4
M  ZZC   7 c5
M  ZZC   8 c6
M  ZZC   9 c7
M  ZZC  10 c8
M  ZZC  11 o2
M  ZZC  12 n2
M  ZZC  13 c9
M  ZZC  14 c10
M  ZZC  15 o3
M  ZZC  16 n3
M  ZZC  17 c11
M  ZZC  18 c12
M  ZZC  19 c13
M  ZZC  20 c14
M  ZZC  21 c15
M  ZZC  22 c16
M  ZZC  23 c17
M  ZZC  24 c18
M  ZZC  25 n4
M  ZZC  26 c19
M  ZZC  27 s1
M  ZZC  28 c20
M  ZZC  29 c21
M  ZZC  30 c22
M  ZZC  31 c23
M  ZZC  32 o4
M  ZZC  33 c24
M  ZZC  34 h11
M  ZZC  35 h12
M  ZZC  36 h13
M  ZZC  37 h01
M  ZZC  38 h31
M  ZZC  39 h51
M  ZZC  40 h52
M  ZZC  41 h53
M  ZZC  42 h61
M  ZZC  43 h62
M  ZZC  44 h63
M  ZZC  45 h71
M  ZZC  46 h72
M  ZZC  47 h73
M  ZZC  48 h91
M  ZZC  49 h02
M  ZZC  50 h111
M  ZZC  51 h112
M  ZZC  52 h131
M  ZZC  53 h141
M  ZZC  54 h181
M  ZZC  55 h182
M  ZZC  56 h183
M  ZZC  57 h191
M  ZZC  58 h201
M  ZZC  59 h211
M  ZZC  60 h221
M  ZZC  61 h222
M  ZZC  62 h231
M  ZZC  63 h41
M  ZZC  64 h241
M  ZZC  65 h242
M  ZZM   1 1
M  ZZI   1 111
M  ZZM   2 3
M  ZZI   2 121
M  ZZM   3 7
M  ZZI   3 81
M  ZZM   4 10
M  ZZI   4 211
M  ZZM   5 1
M  ZZI   5 113
M  ZZM   6 1
M  ZZI   6 110
M  ZZM   7 1
M  ZZI   7 111
M  ZZM   8 1
M  ZZI   8 111
M  ZZM   9 1
M  ZZI   9 111
M  ZZM  10 3
M  ZZI  10 121
M  ZZM  11 7
M  ZZI  11 81
M  ZZM  12 10
M  ZZI  12 192
M  ZZM  13 1
M  ZZI  13 113
M  ZZM  14 3
M  ZZI  14 121
M  ZZM  15 7
M  ZZI  15 81
M  ZZM  16 10
M  ZZI  16 211
M  ZZM  17 1
M  ZZI  17 112
M  ZZM  18 37
M  ZZI  18 124
M  ZZM  19 37
M  ZZI  19 125
M  ZZM  20 37
M  ZZI  20 125
M  ZZM  21 37
M  ZZI  21 124
M  ZZM  22 63
M  ZZI  22 104
M  ZZM  23 64
M  ZZI  23 105
M  ZZM  24 1
M  ZZI  24 111
M  ZZM  25 66
M  ZZI  25 222
M  ZZM  26 63
M  ZZI  26 104
M  ZZM  27 44
M  ZZI  27 248
M  ZZM  28 37
M  ZZI  28 125
M  ZZM  29 37
M  ZZI  29 125
M  ZZM  30 1
M  ZZI  30 112
M  ZZM  31 1
M  ZZI  31 113
M  ZZM  32 6
M  ZZI  32 60
M  ZZM  33 1
M  ZZI  33 112
M  ZZM  34 5
M  ZZI  34 1
M  ZZM  35 5
M  ZZI  35 1
M  ZZM  36 5
M  ZZI  36 1
M  ZZM  37 28
M  ZZI  37 11
M  ZZM  38 5
M  ZZI  38 1
M  ZZM  39 5
M  ZZI  39 1
M  ZZM  40 5
M  ZZI  40 1
M  ZZM  41 5
M  ZZI  41 1
M  ZZM  42 5
M  ZZI  42 1
M  ZZM  43 5
M  ZZI  43 1
M  ZZM  44 5
M  ZZI  44 1
M  ZZM  45 5
M  ZZI  45 1
M  ZZM  46 5
M  ZZI  46 1
M  ZZM  47 5
M  ZZI  47 1
M  ZZM  48 5
M  ZZI  48 1
M  ZZM  49 28
M  ZZI  49 11
M  ZZM  50 5
M  ZZI  50 1
M  ZZM  51 5
M  ZZI  51 1
M  ZZM  52 5
M  ZZI  52 1
M  ZZM  53 5
M  ZZI  53 1
M  ZZM  54 5
M  ZZI  54 1
M  ZZM  55 5
M  ZZI  55 1
M  ZZM  56 5
M  ZZI  56 1
M  ZZM  57 5
M  ZZI  57 1
M  ZZM  58 5
M  ZZI  58 1
M  ZZM  59 5
M  ZZI  59 1
M  ZZM  60 5
M  ZZI  60 1
M  ZZM  61 5
M  ZZI  61 1
M  ZZM  62 5
M  ZZI  62 1
M  ZZM  63 21
M  ZZI  63 20
M  ZZM  64 5
M  ZZI  64 1
M  ZZM  65 5
M  ZZI  65 1
M  END
> <IX>
1

> <NAME>
VHL_6MX8_10.pdb

> <Score>
-24.314379

> <Natom>
65

> <Nflex>
8

> <Hbond>
-7.829768

> <Hphob>
-6.455204

> <VwInt>
-30.276788

> <Dsolv>
21.358629

> <SolEl>
10.225454

> <Eintl>
4.214893

> <RecConf>
ND

> <projPath>
VHL_maps/

> <NAME_>
VHL_6MX8_10.pdb

$$$$
