VHL_4QNQ_13.pdb
  MOLSOFT 04032206403D

 68 70  0  0  1  0  0  0  0  0999 V2000
   19.0579   -6.2305   -5.8439 C   0  0  0  0  0  0  0  0  0  0  0  0
   17.7181   -5.5755   -5.6372 C   0  0  0  0  0  0  0  0  0  0  0  0
   16.6850   -6.1691   -5.9066 O   0  0  0  0  0  0  0  0  0  0  0  0
   17.7973   -4.2854   -5.1420 N   0  0  0  0  0  0  0  0  0  0  0  0
   16.6489   -3.3947   -4.9535 C   0  0  1  0  0  0  0  0  0  0  0  0
   16.0006   -3.4980   -3.5313 C   0  0  0  0  0  0  0  0  0  0  0  0
   15.7454   -4.9584   -3.1271 C   0  0  0  0  0  0  0  0  0  0  0  0
   16.8896   -2.8698   -2.4477 C   0  0  0  0  0  0  0  0  0  0  0  0
   14.6369   -2.7917   -3.5150 C   0  0  0  0  0  0  0  0  0  0  0  0
   17.1815   -1.9808   -5.2788 C   0  0  0  0  0  0  0  0  0  0  0  0
   18.2909   -1.6359   -4.8979 O   0  0  0  0  0  0  0  0  0  0  0  0
   16.3731   -1.0824   -5.9788 N   0  0  0  0  0  0  0  0  0  0  0  0
   16.8553    0.2755   -6.2589 C   0  0  2  0  0  0  0  0  0  0  0  0
   16.7932    1.2307   -5.0656 C   0  0  0  0  0  0  0  0  0  0  0  0
   17.5003    2.2269   -5.0151 O   0  0  0  0  0  0  0  0  0  0  0  0
   15.7689    0.9768   -4.1731 N   0  0  0  0  0  0  0  0  0  0  0  0
   15.4454    1.8624   -3.0671 C   0  0  1  0  0  0  0  0  0  0  0  0
   14.3336    2.8286   -3.4797 C   0  0  0  0  0  0  0  0  0  0  0  0
   15.1364    1.0600   -1.8177 C   0  0  0  0  0  0  0  0  0  0  0  0
   13.8524    0.6279   -1.4838 C   0  0  0  0  0  0  0  0  0  0  0  0
   13.6206   -0.0964   -0.3257 C   0  0  0  0  0  0  0  0  0  0  0  0
   14.6643   -0.4138    0.5360 C   0  0  0  0  0  0  0  0  0  0  0  0
   14.4222   -1.1401    1.7733 C   0  0  0  0  0  0  0  0  0  0  0  0
   14.8513   -2.3903    2.1968 C   0  0  0  0  0  0  0  0  0  0  0  0
   15.7169   -3.3332    1.4570 C   0  0  0  0  0  0  0  0  0  0  0  0
   14.3908   -2.7779    3.4401 N   0  0  0  0  0  0  0  0  0  0  0  0
   13.6652   -1.8148    3.9607 C   0  0  0  0  0  0  0  0  0  0  0  0
   13.4942   -0.4044    3.0166 S   0  0  0  0  0  0  0  0  0  0  0  0
   15.9488   -0.0138    0.1934 C   0  0  0  0  0  0  0  0  0  0  0  0
   16.1789    0.7073   -0.9647 C   0  0  0  0  0  0  0  0  0  0  0  0
   15.9398    0.8038   -7.3577 C   0  0  0  0  0  0  0  0  0  0  0  0
   15.3540   -0.4435   -7.9844 C   0  0  1  0  0  0  0  0  0  0  0  0
   16.2268   -0.9599   -9.0000 O   0  0  0  0  0  0  0  0  0  0  0  0
   15.2484   -1.4218   -6.8273 C   0  0  0  0  0  0  0  0  0  0  0  0
   19.8803   -5.5318   -5.6754 H   0  0  0  0  0  0  0  0  0  0  0  0
   19.1261   -6.5908   -6.8737 H   0  0  0  0  0  0  0  0  0  0  0  0
   19.1564   -7.0773   -5.1598 H   0  0  0  0  0  0  0  0  0  0  0  0
   18.7141   -3.8949   -4.9510 H   0  0  0  0  0  0  0  0  0  0  0  0
   15.9270   -3.6893   -5.7073 H   0  0  0  0  0  0  0  0  0  0  0  0
   15.2239   -5.0255   -2.1665 H   0  0  0  0  0  0  0  0  0  0  0  0
   16.6731   -5.5268   -3.0206 H   0  0  0  0  0  0  0  0  0  0  0  0
   15.1209   -5.4682   -3.8622 H   0  0  0  0  0  0  0  0  0  0  0  0
   16.4562   -3.0039   -1.4529 H   0  0  0  0  0  0  0  0  0  0  0  0
   17.0191   -1.7941   -2.5933 H   0  0  0  0  0  0  0  0  0  0  0  0
   17.8830   -3.3241   -2.4304 H   0  0  0  0  0  0  0  0  0  0  0  0
   14.7368   -1.7193   -3.7115 H   0  0  0  0  0  0  0  0  0  0  0  0
   14.1413   -2.8989   -2.5456 H   0  0  0  0  0  0  0  0  0  0  0  0
   13.9625   -3.1864   -4.2730 H   0  0  0  0  0  0  0  0  0  0  0  0
   17.8958    0.2149   -6.5955 H   0  0  0  0  0  0  0  0  0  0  0  0
   15.1958    0.1559   -4.3189 H   0  0  0  0  0  0  0  0  0  0  0  0
   16.3273    2.4785   -2.8583 H   0  0  0  0  0  0  0  0  0  0  0  0
   14.6614    3.4664   -4.3066 H   0  0  0  0  0  0  0  0  0  0  0  0
   14.0381    3.4794   -2.6503 H   0  0  0  0  0  0  0  0  0  0  0  0
   13.4422    2.2996   -3.8299 H   0  0  0  0  0  0  0  0  0  0  0  0
   13.0078    0.8558   -2.1244 H   0  0  0  0  0  0  0  0  0  0  0  0
   12.6072   -0.4130   -0.0968 H   0  0  0  0  0  0  0  0  0  0  0  0
   15.1806   -3.7616    0.6056 H   0  0  0  0  0  0  0  0  0  0  0  0
   16.0381   -4.1501    2.1088 H   0  0  0  0  0  0  0  0  0  0  0  0
   16.6190   -2.8385    1.0872 H   0  0  0  0  0  0  0  0  0  0  0  0
   13.2041   -1.9003    4.9340 H   0  0  0  0  0  0  0  0  0  0  0  0
   16.7886   -0.2497    0.8404 H   0  0  0  0  0  0  0  0  0  0  0  0
   17.1977    1.0045   -1.1984 H   0  0  0  0  0  0  0  0  0  0  0  0
   15.1356    1.4210   -6.9408 H   0  0  0  0  0  0  0  0  0  0  0  0
   16.4919    1.4176   -8.0757 H   0  0  0  0  0  0  0  0  0  0  0  0
   14.3844   -0.2385   -8.4358 H   0  0  0  0  0  0  0  0  0  0  0  0
   17.1405   -0.9101   -8.6596 H   0  0  0  0  0  0  0  0  0  0  0  0
   15.2938   -2.4587   -7.1669 H   0  0  0  0  0  0  0  0  0  0  0  0
   14.3349   -1.2549   -6.2470 H   0  0  0  0  0  0  0  0  0  0  0  0
  1 35  1  0  0  0  0
  1 36  1  0  0  0  0
  1 37  1  0  0  0  0
  1  2  1  0  0  0  0
  2  3  2  0  0  0  0
  2  4  1  0  0  0  0
  4 38  1  0  0  0  0
  5  4  1  0  0  0  0
  5 39  1  0  0  0  0
  5  6  1  0  0  0  0
  5 10  1  0  0  0  0
  6  7  1  0  0  0  0
  6  8  1  0  0  0  0
  6  9  1  0  0  0  0
  7 40  1  0  0  0  0
  7 41  1  0  0  0  0
  7 42  1  0  0  0  0
  8 43  1  0  0  0  0
  8 44  1  0  0  0  0
  8 45  1  0  0  0  0
  9 46  1  0  0  0  0
  9 47  1  0  0  0  0
  9 48  1  0  0  0  0
 10 11  2  0  0  0  0
 10 12  1  0  0  0  0
 12 34  1  0  0  0  0
 13 12  1  0  0  0  0
 13 31  1  0  0  0  0
 13 49  1  0  0  0  0
 13 14  1  0  0  0  0
 14 15  2  0  0  0  0
 14 16  1  0  0  0  0
 16 50  1  0  0  0  0
 17 16  1  0  0  0  0
 17 51  1  0  0  0  0
 17 18  1  0  0  0  0
 17 19  1  0  0  0  0
 18 52  1  0  0  0  0
 18 53  1  0  0  0  0
 18 54  1  0  0  0  0
 19 20  1  0  0  0  0
 19 30  2  0  0  0  0
 20 55  1  0  0  0  0
 20 21  2  0  0  0  0
 21 56  1  0  0  0  0
 21 22  1  0  0  0  0
 22 29  2  0  0  0  0
 22 23  1  0  0  0  0
 23 24  2  0  0  0  0
 23 28  1  0  0  0  0
 24 25  1  0  0  0  0
 24 26  1  0  0  0  0
 25 57  1  0  0  0  0
 25 58  1  0  0  0  0
 25 59  1  0  0  0  0
 26 27  2  0  0  0  0
 27 60  1  0  0  0  0
 27 28  1  0  0  0  0
 29 61  1  0  0  0  0
 29 30  1  0  0  0  0
 30 62  1  0  0  0  0
 32 31  1  0  0  0  0
 31 63  1  0  0  0  0
 31 64  1  0  0  0  0
 32 34  1  0  0  0  0
 32 65  1  0  0  0  0
 32 33  1  0  0  0  0
 33 66  1  0  0  0  0
 34 67  1  0  0  0  0
 34 68  1  0  0  0  0
M  ZZC   1 c1
M  ZZC   2 c2
M  ZZC   3 o1
M  ZZC   4 n1
M  ZZC   5 c3
M  ZZC   6 c4
M  ZZC   7 c5
M  ZZC   8 c6
M  ZZC   9 c7
M  ZZC  10 c8
M  ZZC  11 o2
M  ZZC  12 n2
M  ZZC  13 c9
M  ZZC  14 c10
M  ZZC  15 o3
M  ZZC  16 n3
M  ZZC  17 c11
M  ZZC  18 c12
M  ZZC  19 c13
M  ZZC  20 c14
M  ZZC  21 c15
M  ZZC  22 c16
M  ZZC  23 c17
M  ZZC  24 c18
M  ZZC  25 c19
M  ZZC  26 n4
M  ZZC  27 c20
M  ZZC  28 s1
M  ZZC  29 c21
M  ZZC  30 c22
M  ZZC  31 c23
M  ZZC  32 c24
M  ZZC  33 o4
M  ZZC  34 c25
M  ZZC  35 h11
M  ZZC  36 h12
M  ZZC  37 h13
M  ZZC  38 h01
M  ZZC  39 h31
M  ZZC  40 h51
M  ZZC  41 h52
M  ZZC  42 h53
M  ZZC  43 h61
M  ZZC  44 h62
M  ZZC  45 h63
M  ZZC  46 h71
M  ZZC  47 h72
M  ZZC  48 h73
M  ZZC  49 h91
M  ZZC  50 h02
M  ZZC  51 h111
M  ZZC  52 h121
M  ZZC  53 h122
M  ZZC  54 h123
M  ZZC  55 h141
M  ZZC  56 h151
M  ZZC  57 h191
M  ZZC  58 h192
M  ZZC  59 h193
M  ZZC  60 h201
M  ZZC  61 h211
M  ZZC  62 h221
M  ZZC  63 h231
M  ZZC  64 h232
M  ZZC  65 h241
M  ZZC  66 h41
M  ZZC  67 h251
M  ZZC  68 h252
M  ZZM   1 1
M  ZZI   1 111
M  ZZM   2 3
M  ZZI   2 121
M  ZZM   3 7
M  ZZI   3 81
M  ZZM   4 10
M  ZZI   4 211
M  ZZM   5 1
M  ZZI   5 113
M  ZZM   6 1
M  ZZI   6 110
M  ZZM   7 1
M  ZZI   7 111
M  ZZM   8 1
M  ZZI   8 111
M  ZZM   9 1
M  ZZI   9 111
M  ZZM  10 3
M  ZZI  10 121
M  ZZM  11 7
M  ZZI  11 81
M  ZZM  12 10
M  ZZI  12 192
M  ZZM  13 1
M  ZZI  13 113
M  ZZM  14 3
M  ZZI  14 121
M  ZZM  15 7
M  ZZI  15 81
M  ZZM  16 10
M  ZZI  16 211
M  ZZM  17 1
M  ZZI  17 113
M  ZZM  18 1
M  ZZI  18 111
M  ZZM  19 37
M  ZZI  19 124
M  ZZM  20 37
M  ZZI  20 125
M  ZZM  21 37
M  ZZI  21 125
M  ZZM  22 37
M  ZZI  22 124
M  ZZM  23 63
M  ZZI  23 104
M  ZZM  24 64
M  ZZI  24 105
M  ZZM  25 1
M  ZZI  25 111
M  ZZM  26 66
M  ZZI  26 222
M  ZZM  27 63
M  ZZI  27 104
M  ZZM  28 44
M  ZZI  28 248
M  ZZM  29 37
M  ZZI  29 125
M  ZZM  30 37
M  ZZI  30 125
M  ZZM  31 1
M  ZZI  31 112
M  ZZM  32 1
M  ZZI  32 113
M  ZZM  33 6
M  ZZI  33 60
M  ZZM  34 1
M  ZZI  34 112
M  ZZM  35 5
M  ZZI  35 1
M  ZZM  36 5
M  ZZI  36 1
M  ZZM  37 5
M  ZZI  37 1
M  ZZM  38 28
M  ZZI  38 11
M  ZZM  39 5
M  ZZI  39 1
M  ZZM  40 5
M  ZZI  40 1
M  ZZM  41 5
M  ZZI  41 1
M  ZZM  42 5
M  ZZI  42 1
M  ZZM  43 5
M  ZZI  43 1
M  ZZM  44 5
M  ZZI  44 1
M  ZZM  45 5
M  ZZI  45 1
M  ZZM  46 5
M  ZZI  46 1
M  ZZM  47 5
M  ZZI  47 1
M  ZZM  48 5
M  ZZI  48 1
M  ZZM  49 5
M  ZZI  49 1
M  ZZM  50 28
M  ZZI  50 11
M  ZZM  51 5
M  ZZI  51 1
M  ZZM  52 5
M  ZZI  52 1
M  ZZM  53 5
M  ZZI  53 1
M  ZZM  54 5
M  ZZI  54 1
M  ZZM  55 5
M  ZZI  55 1
M  ZZM  56 5
M  ZZI  56 1
M  ZZM  57 5
M  ZZI  57 1
M  ZZM  58 5
M  ZZI  58 1
M  ZZM  59 5
M  ZZI  59 1
M  ZZM  60 5
M  ZZI  60 1
M  ZZM  61 5
M  ZZI  61 1
M  ZZM  62 5
M  ZZI  62 1
M  ZZM  63 5
M  ZZI  63 1
M  ZZM  64 5
M  ZZI  64 1
M  ZZM  65 5
M  ZZI  65 1
M  ZZM  66 21
M  ZZI  66 20
M  ZZM  67 5
M  ZZI  67 1
M  ZZM  68 5
M  ZZI  68 1
M  END
> <IX>
1

> <NAME>
VHL_4QNQ_13.pdb

> <Score>
-25.636544

> <Natom>
68

> <Nflex>
8

> <Hbond>
-7.912669

> <Hphob>
-6.869698

> <VwInt>
-27.585237

> <Dsolv>
17.255956

> <SolEl>
9.348106

> <Eintl>
4.431211

> <RecConf>
ND

> <projPath>
VHL_maps/

> <NAME_>
VHL_4QNQ_13.pdb

$$$$
