VHL_4CI3_15.pdb
  MOLSOFT 04032206393D

 65 67  0  0  1  0  0  0  0  0999 V2000
   16.0902   -6.4422   -5.7006 O   0  0  0  0  0  0  0  0  0  0  0  0
   17.1971   -6.1012   -5.3157 C   0  0  0  0  0  0  0  0  0  0  0  0
   17.5083   -4.8572   -4.7998 N   0  0  0  0  0  0  0  0  0  0  0  0
   16.5564   -3.7457   -4.6974 C   0  0  1  0  0  0  0  0  0  0  0  0
   15.9264   -3.5992   -3.2728 C   0  0  0  0  0  0  0  0  0  0  0  0
   14.7108   -2.6600   -3.3141 C   0  0  0  0  0  0  0  0  0  0  0  0
   15.4314   -4.9562   -2.7487 C   0  0  0  0  0  0  0  0  0  0  0  0
   16.9279   -3.0399   -2.2505 C   0  0  0  0  0  0  0  0  0  0  0  0
   17.2911   -2.4768   -5.1679 C   0  0  0  0  0  0  0  0  0  0  0  0
   18.4599   -2.2800   -4.8681 O   0  0  0  0  0  0  0  0  0  0  0  0
   16.5709   -1.5115   -5.8750 N   0  0  0  0  0  0  0  0  0  0  0  0
   17.1932   -0.2415   -6.2302 C   0  0  2  0  0  0  0  0  0  0  0  0
   17.5910    0.6428   -5.0542 C   0  0  0  0  0  0  0  0  0  0  0  0
   17.1009    0.5392   -3.9379 O   0  0  0  0  0  0  0  0  0  0  0  0
   18.5262    1.5994   -5.4146 N   0  0  0  0  0  0  0  0  0  0  0  0
   19.0310    2.5816   -4.4775 C   0  0  0  0  0  0  0  0  0  0  0  0
   17.9600    3.5549   -4.0663 C   0  0  0  0  0  0  0  0  0  0  0  0
   17.5449    3.6121   -2.7421 C   0  0  0  0  0  0  0  0  0  0  0  0
   16.4789    4.4093   -2.3752 C   0  0  0  0  0  0  0  0  0  0  0  0
   15.8025    5.1698   -3.3216 C   0  0  0  0  0  0  0  0  0  0  0  0
   14.6093    5.9025   -2.9339 C   0  0  0  0  0  0  0  0  0  0  0  0
   13.4406    5.4317   -2.3535 C   0  0  0  0  0  0  0  0  0  0  0  0
   13.1316    4.0157   -2.0336 C   0  0  0  0  0  0  0  0  0  0  0  0
   12.5078    6.4065   -2.0510 N   0  0  0  0  0  0  0  0  0  0  0  0
   12.9710    7.5815   -2.4137 C   0  0  0  0  0  0  0  0  0  0  0  0
   14.5105    7.6039   -3.1495 S   0  0  0  0  0  0  0  0  0  0  0  0
   16.2513    5.1582   -4.6380 C   0  0  0  0  0  0  0  0  0  0  0  0
   17.3216    4.3606   -5.0052 C   0  0  0  0  0  0  0  0  0  0  0  0
   16.1675    0.4706   -7.1039 C   0  0  0  0  0  0  0  0  0  0  0  0
   15.4252   -0.6745   -7.7616 C   0  0  1  0  0  0  0  0  0  0  0  0
   16.1560   -1.1429   -8.9058 O   0  0  0  0  0  0  0  0  0  0  0  0
   15.3797   -1.7400   -6.6722 C   0  0  0  0  0  0  0  0  0  0  0  0
   18.3638   -7.0486   -5.3595 C   0  0  0  0  0  0  0  0  0  0  0  0
   18.4594   -4.6887   -4.4954 H   0  0  0  0  0  0  0  0  0  0  0  0
   15.7741   -3.9667   -5.4106 H   0  0  0  0  0  0  0  0  0  0  0  0
   13.9657   -3.0037   -4.0384 H   0  0  0  0  0  0  0  0  0  0  0  0
   14.9913   -1.6376   -3.5809 H   0  0  0  0  0  0  0  0  0  0  0  0
   14.2132   -2.6055   -2.3403 H   0  0  0  0  0  0  0  0  0  0  0  0
   16.2478   -5.6722   -2.6222 H   0  0  0  0  0  0  0  0  0  0  0  0
   14.6993   -5.3981   -3.4268 H   0  0  0  0  0  0  0  0  0  0  0  0
   14.9452   -4.8576   -1.7731 H   0  0  0  0  0  0  0  0  0  0  0  0
   17.8357   -3.6430   -2.2083 H   0  0  0  0  0  0  0  0  0  0  0  0
   16.5023   -3.0252   -1.2418 H   0  0  0  0  0  0  0  0  0  0  0  0
   17.2252   -2.0131   -2.4829 H   0  0  0  0  0  0  0  0  0  0  0  0
   18.0944   -0.4702   -6.7956 H   0  0  0  0  0  0  0  0  0  0  0  0
   18.9086    1.5982   -6.3544 H   0  0  0  0  0  0  0  0  0  0  0  0
   19.4313    2.0459   -3.6096 H   0  0  0  0  0  0  0  0  0  0  0  0
   19.8605    3.1132   -4.9553 H   0  0  0  0  0  0  0  0  0  0  0  0
   18.0244    2.9953   -1.9873 H   0  0  0  0  0  0  0  0  0  0  0  0
   16.1597    4.4089   -1.3370 H   0  0  0  0  0  0  0  0  0  0  0  0
   12.0626    3.8595   -1.8845 H   0  0  0  0  0  0  0  0  0  0  0  0
   13.6428    3.7078   -1.1177 H   0  0  0  0  0  0  0  0  0  0  0  0
   13.4436    3.3491   -2.8428 H   0  0  0  0  0  0  0  0  0  0  0  0
   12.4161    8.4918   -2.2522 H   0  0  0  0  0  0  0  0  0  0  0  0
   15.7414    5.7392   -5.4011 H   0  0  0  0  0  0  0  0  0  0  0  0
   17.6301    4.3379   -6.0463 H   0  0  0  0  0  0  0  0  0  0  0  0
   15.4787    1.0636   -6.4907 H   0  0  0  0  0  0  0  0  0  0  0  0
   16.6456    1.1405   -7.8265 H   0  0  0  0  0  0  0  0  0  0  0  0
   14.4258   -0.3845   -8.0930 H   0  0  0  0  0  0  0  0  0  0  0  0
   17.1044   -1.1147   -8.6817 H   0  0  0  0  0  0  0  0  0  0  0  0
   15.3847   -2.7505   -7.0888 H   0  0  0  0  0  0  0  0  0  0  0  0
   14.5107   -1.6030   -6.0219 H   0  0  0  0  0  0  0  0  0  0  0  0
   18.3769   -7.5545   -6.3284 H   0  0  0  0  0  0  0  0  0  0  0  0
   18.2482   -7.7897   -4.5653 H   0  0  0  0  0  0  0  0  0  0  0  0
   19.3158   -6.5250   -5.2331 H   0  0  0  0  0  0  0  0  0  0  0  0
  1  2  2  0  0  0  0
  2  3  1  0  0  0  0
  2 33  1  0  0  0  0
  4  3  1  0  0  0  0
  3 34  1  0  0  0  0
  4  5  1  0  0  0  0
  4 35  1  0  0  0  0
  4  9  1  0  0  0  0
  5  6  1  0  0  0  0
  5  7  1  0  0  0  0
  5  8  1  0  0  0  0
  6 36  1  0  0  0  0
  6 37  1  0  0  0  0
  6 38  1  0  0  0  0
  7 39  1  0  0  0  0
  7 40  1  0  0  0  0
  7 41  1  0  0  0  0
  8 42  1  0  0  0  0
  8 43  1  0  0  0  0
  8 44  1  0  0  0  0
  9 10  2  0  0  0  0
  9 11  1  0  0  0  0
 11 32  1  0  0  0  0
 12 11  1  0  0  0  0
 12 29  1  0  0  0  0
 12 45  1  0  0  0  0
 12 13  1  0  0  0  0
 13 14  2  0  0  0  0
 13 15  1  0  0  0  0
 15 46  1  0  0  0  0
 15 16  1  0  0  0  0
 16 47  1  0  0  0  0
 16 48  1  0  0  0  0
 16 17  1  0  0  0  0
 17 18  1  0  0  0  0
 17 28  2  0  0  0  0
 18 49  1  0  0  0  0
 18 19  2  0  0  0  0
 19 50  1  0  0  0  0
 19 20  1  0  0  0  0
 20 27  2  0  0  0  0
 20 21  1  0  0  0  0
 21 22  2  0  0  0  0
 21 26  1  0  0  0  0
 22 23  1  0  0  0  0
 22 24  1  0  0  0  0
 23 51  1  0  0  0  0
 23 52  1  0  0  0  0
 23 53  1  0  0  0  0
 24 25  2  0  0  0  0
 25 54  1  0  0  0  0
 25 26  1  0  0  0  0
 27 55  1  0  0  0  0
 27 28  1  0  0  0  0
 28 56  1  0  0  0  0
 30 29  1  0  0  0  0
 29 57  1  0  0  0  0
 29 58  1  0  0  0  0
 30 32  1  0  0  0  0
 30 59  1  0  0  0  0
 30 31  1  0  0  0  0
 31 60  1  0  0  0  0
 32 61  1  0  0  0  0
 32 62  1  0  0  0  0
 33 63  1  0  0  0  0
 33 64  1  0  0  0  0
 33 65  1  0  0  0  0
M  ZZC   1 o1
M  ZZC   2 c1
M  ZZC   3 n1
M  ZZC   4 c2
M  ZZC   5 c3
M  ZZC   6 c4
M  ZZC   7 c5
M  ZZC   8 c6
M  ZZC   9 c7
M  ZZC  10 o2
M  ZZC  11 n2
M  ZZC  12 c8
M  ZZC  13 c9
M  ZZC  14 o3
M  ZZC  15 n3
M  ZZC  16 c10
M  ZZC  17 c11
M  ZZC  18 c12
M  ZZC  19 c13
M  ZZC  20 c14
M  ZZC  21 c15
M  ZZC  22 c16
M  ZZC  23 c17
M  ZZC  24 n4
M  ZZC  25 c18
M  ZZC  26 s1
M  ZZC  27 c19
M  ZZC  28 c20
M  ZZC  29 c21
M  ZZC  30 c22
M  ZZC  31 o4
M  ZZC  32 c23
M  ZZC  33 c24
M  ZZC  34 h11
M  ZZC  35 h21
M  ZZC  36 h41
M  ZZC  37 h42
M  ZZC  38 h43
M  ZZC  39 h51
M  ZZC  40 h52
M  ZZC  41 h53
M  ZZC  42 h61
M  ZZC  43 h62
M  ZZC  44 h63
M  ZZC  45 h81
M  ZZC  46 h31
M  ZZC  47 h101
M  ZZC  48 h102
M  ZZC  49 h121
M  ZZC  50 h131
M  ZZC  51 h171
M  ZZC  52 h172
M  ZZC  53 h173
M  ZZC  54 h181
M  ZZC  55 h191
M  ZZC  56 h201
M  ZZC  57 h211
M  ZZC  58 h212
M  ZZC  59 h221
M  ZZC  60 h01
M  ZZC  61 h231
M  ZZC  62 h232
M  ZZC  63 h241
M  ZZC  64 h242
M  ZZC  65 h243
M  ZZM   1 7
M  ZZI   1 81
M  ZZM   2 3
M  ZZI   2 121
M  ZZM   3 10
M  ZZI   3 211
M  ZZM   4 1
M  ZZI   4 113
M  ZZM   5 1
M  ZZI   5 110
M  ZZM   6 1
M  ZZI   6 111
M  ZZM   7 1
M  ZZI   7 111
M  ZZM   8 1
M  ZZI   8 111
M  ZZM   9 3
M  ZZI   9 121
M  ZZM  10 7
M  ZZI  10 81
M  ZZM  11 10
M  ZZI  11 192
M  ZZM  12 1
M  ZZI  12 113
M  ZZM  13 3
M  ZZI  13 121
M  ZZM  14 7
M  ZZI  14 81
M  ZZM  15 10
M  ZZI  15 211
M  ZZM  16 1
M  ZZI  16 112
M  ZZM  17 37
M  ZZI  17 124
M  ZZM  18 37
M  ZZI  18 125
M  ZZM  19 37
M  ZZI  19 125
M  ZZM  20 37
M  ZZI  20 124
M  ZZM  21 63
M  ZZI  21 104
M  ZZM  22 64
M  ZZI  22 105
M  ZZM  23 1
M  ZZI  23 111
M  ZZM  24 66
M  ZZI  24 222
M  ZZM  25 63
M  ZZI  25 104
M  ZZM  26 44
M  ZZI  26 248
M  ZZM  27 37
M  ZZI  27 125
M  ZZM  28 37
M  ZZI  28 125
M  ZZM  29 1
M  ZZI  29 112
M  ZZM  30 1
M  ZZI  30 113
M  ZZM  31 6
M  ZZI  31 60
M  ZZM  32 1
M  ZZI  32 112
M  ZZM  33 1
M  ZZI  33 111
M  ZZM  34 28
M  ZZI  34 11
M  ZZM  35 5
M  ZZI  35 1
M  ZZM  36 5
M  ZZI  36 1
M  ZZM  37 5
M  ZZI  37 1
M  ZZM  38 5
M  ZZI  38 1
M  ZZM  39 5
M  ZZI  39 1
M  ZZM  40 5
M  ZZI  40 1
M  ZZM  41 5
M  ZZI  41 1
M  ZZM  42 5
M  ZZI  42 1
M  ZZM  43 5
M  ZZI  43 1
M  ZZM  44 5
M  ZZI  44 1
M  ZZM  45 5
M  ZZI  45 1
M  ZZM  46 28
M  ZZI  46 11
M  ZZM  47 5
M  ZZI  47 1
M  ZZM  48 5
M  ZZI  48 1
M  ZZM  49 5
M  ZZI  49 1
M  ZZM  50 5
M  ZZI  50 1
M  ZZM  51 5
M  ZZI  51 1
M  ZZM  52 5
M  ZZI  52 1
M  ZZM  53 5
M  ZZI  53 1
M  ZZM  54 5
M  ZZI  54 1
M  ZZM  55 5
M  ZZI  55 1
M  ZZM  56 5
M  ZZI  56 1
M  ZZM  57 5
M  ZZI  57 1
M  ZZM  58 5
M  ZZI  58 1
M  ZZM  59 5
M  ZZI  59 1
M  ZZM  60 21
M  ZZI  60 20
M  ZZM  61 5
M  ZZI  61 1
M  ZZM  62 5
M  ZZI  62 1
M  ZZM  63 5
M  ZZI  63 1
M  ZZM  64 5
M  ZZI  64 1
M  ZZM  65 5
M  ZZI  65 1
M  END
> <IX>
1

> <NAME>
VHL_4CI3_15.pdb

> <Score>
-26.730955

> <Natom>
65

> <Nflex>
8

> <Hbond>
-9.551984

> <Hphob>
-6.170682

> <VwInt>
-26.134736

> <Dsolv>
18.857006

> <SolEl>
7.863978

> <Eintl>
5.952795

> <RecConf>
ND

> <projPath>
VHL_maps/

> <NAME_>
VHL_4CI3_15.pdb

$$$$
