VHL_4IM0_6.pdb
  MOLSOFT 04032206383D

 65 67  0  0  1  0  0  0  0  0999 V2000
   18.1232   -6.6764   -5.1349 C   0  0  0  0  0  0  0  0  0  0  0  0
   16.9080   -5.8027   -4.9842 C   0  0  0  0  0  0  0  0  0  0  0  0
   15.8230   -6.1616   -5.4079 O   0  0  0  0  0  0  0  0  0  0  0  0
   17.1512   -4.6239   -4.3070 N   0  0  0  0  0  0  0  0  0  0  0  0
   16.1429   -3.5857   -4.0383 C   0  0  1  0  0  0  0  0  0  0  0  0
   15.8826   -3.4130   -2.5125 C   0  0  0  0  0  0  0  0  0  0  0  0
   17.1377   -2.9594   -1.7534 C   0  0  0  0  0  0  0  0  0  0  0  0
   14.7732   -2.3982   -2.2130 C   0  0  0  0  0  0  0  0  0  0  0  0
   15.4102   -4.7610   -1.9536 C   0  0  0  0  0  0  0  0  0  0  0  0
   16.6511   -2.3388   -4.7932 C   0  0  0  0  0  0  0  0  0  0  0  0
   17.8475   -2.0759   -4.8328 O   0  0  0  0  0  0  0  0  0  0  0  0
   15.7113   -1.5538   -5.4684 N   0  0  0  0  0  0  0  0  0  0  0  0
   16.1234   -0.6291   -6.5142 C   0  0  2  0  0  0  0  0  0  0  0  0
   16.5209    0.7465   -5.9710 C   0  0  0  0  0  0  0  0  0  0  0  0
   15.9755    1.2655   -5.0064 O   0  0  0  0  0  0  0  0  0  0  0  0
   17.5021    1.3696   -6.7199 N   0  0  0  0  0  0  0  0  0  0  0  0
   17.9752    2.7032   -6.3896 C   0  0  0  0  0  0  0  0  0  0  0  0
   19.3025    3.0597   -7.0156 C   0  0  0  0  0  0  0  0  0  0  0  0
   19.5931    4.3747   -7.3646 C   0  0  0  0  0  0  0  0  0  0  0  0
   20.8273    4.7217   -7.8952 C   0  0  0  0  0  0  0  0  0  0  0  0
   21.8243    3.7686   -8.0874 C   0  0  0  0  0  0  0  0  0  0  0  0
   23.1180    4.1132   -8.6830 C   0  0  0  0  0  0  0  0  0  0  0  0
   23.4465    4.9442   -9.7510 C   0  0  0  0  0  0  0  0  0  0  0  0
   22.5264    5.7340  -10.6036 C   0  0  0  0  0  0  0  0  0  0  0  0
   24.7930    5.0145  -10.0511 N   0  0  0  0  0  0  0  0  0  0  0  0
   25.4747    4.2503   -9.2305 C   0  0  0  0  0  0  0  0  0  0  0  0
   24.5676    3.4268   -8.0481 S   0  0  0  0  0  0  0  0  0  0  0  0
   21.5340    2.4614   -7.7106 C   0  0  0  0  0  0  0  0  0  0  0  0
   20.3022    2.1133   -7.1914 C   0  0  0  0  0  0  0  0  0  0  0  0
   14.8961   -0.5278   -7.4063 C   0  0  0  0  0  0  0  0  0  0  0  0
   13.7305   -0.6636   -6.4371 C   0  0  1  0  0  0  0  0  0  0  0  0
   12.5959   -1.2715   -7.0493 O   0  0  0  0  0  0  0  0  0  0  0  0
   14.2643   -1.5674   -5.3388 C   0  0  0  0  0  0  0  0  0  0  0  0
   19.0272   -6.0738   -5.2648 H   0  0  0  0  0  0  0  0  0  0  0  0
   18.0055   -7.3150   -6.0155 H   0  0  0  0  0  0  0  0  0  0  0  0
   18.2219   -7.3056   -4.2473 H   0  0  0  0  0  0  0  0  0  0  0  0
   18.1115   -4.4188   -4.0552 H   0  0  0  0  0  0  0  0  0  0  0  0
   15.2150   -3.9214   -4.5006 H   0  0  0  0  0  0  0  0  0  0  0  0
   16.9495   -2.8888   -0.6772 H   0  0  0  0  0  0  0  0  0  0  0  0
   17.4818   -1.9758   -2.0876 H   0  0  0  0  0  0  0  0  0  0  0  0
   17.9630   -3.6565   -1.8847 H   0  0  0  0  0  0  0  0  0  0  0  0
   15.0592   -1.3895   -2.5292 H   0  0  0  0  0  0  0  0  0  0  0  0
   14.5607   -2.3435   -1.1411 H   0  0  0  0  0  0  0  0  0  0  0  0
   13.8504   -2.6389   -2.7479 H   0  0  0  0  0  0  0  0  0  0  0  0
   15.1444   -4.6758   -0.8975 H   0  0  0  0  0  0  0  0  0  0  0  0
   16.1802   -5.5295   -2.0429 H   0  0  0  0  0  0  0  0  0  0  0  0
   14.5255   -5.1283   -2.4837 H   0  0  0  0  0  0  0  0  0  0  0  0
   16.9703   -1.0527   -7.0633 H   0  0  0  0  0  0  0  0  0  0  0  0
   17.9166    0.8775   -7.5062 H   0  0  0  0  0  0  0  0  0  0  0  0
   17.1987    3.3984   -6.7275 H   0  0  0  0  0  0  0  0  0  0  0  0
   18.0517    2.7925   -5.3004 H   0  0  0  0  0  0  0  0  0  0  0  0
   18.8482    5.1526   -7.2237 H   0  0  0  0  0  0  0  0  0  0  0  0
   21.0038    5.7615   -8.1500 H   0  0  0  0  0  0  0  0  0  0  0  0
   23.0064    6.0058  -11.5483 H   0  0  0  0  0  0  0  0  0  0  0  0
   22.2331    6.6592  -10.1000 H   0  0  0  0  0  0  0  0  0  0  0  0
   21.6232    5.1706  -10.8491 H   0  0  0  0  0  0  0  0  0  0  0  0
   26.5490    4.1479   -9.2898 H   0  0  0  0  0  0  0  0  0  0  0  0
   22.2645    1.6721   -7.8392 H   0  0  0  0  0  0  0  0  0  0  0  0
   20.1269    1.0761   -6.9299 H   0  0  0  0  0  0  0  0  0  0  0  0
   14.8450    0.4022   -7.9821 H   0  0  0  0  0  0  0  0  0  0  0  0
   14.8864   -1.3551   -8.1246 H   0  0  0  0  0  0  0  0  0  0  0  0
   13.4317    0.3092   -6.0300 H   0  0  0  0  0  0  0  0  0  0  0  0
   12.2726   -0.6780   -7.7509 H   0  0  0  0  0  0  0  0  0  0  0  0
   13.8716   -2.5844   -5.3841 H   0  0  0  0  0  0  0  0  0  0  0  0
   13.9910   -1.1456   -4.3716 H   0  0  0  0  0  0  0  0  0  0  0  0
  1 34  1  0  0  0  0
  1 35  1  0  0  0  0
  1 36  1  0  0  0  0
  1  2  1  0  0  0  0
  2  3  2  0  0  0  0
  2  4  1  0  0  0  0
  4 37  1  0  0  0  0
  5  4  1  0  0  0  0
  5 38  1  0  0  0  0
  5  6  1  0  0  0  0
  5 10  1  0  0  0  0
  6  7  1  0  0  0  0
  6  8  1  0  0  0  0
  6  9  1  0  0  0  0
  7 39  1  0  0  0  0
  7 40  1  0  0  0  0
  7 41  1  0  0  0  0
  8 42  1  0  0  0  0
  8 43  1  0  0  0  0
  8 44  1  0  0  0  0
  9 45  1  0  0  0  0
  9 46  1  0  0  0  0
  9 47  1  0  0  0  0
 10 11  2  0  0  0  0
 10 12  1  0  0  0  0
 12 33  1  0  0  0  0
 13 12  1  0  0  0  0
 13 30  1  0  0  0  0
 13 48  1  0  0  0  0
 13 14  1  0  0  0  0
 14 15  2  0  0  0  0
 14 16  1  0  0  0  0
 16 49  1  0  0  0  0
 16 17  1  0  0  0  0
 17 50  1  0  0  0  0
 17 51  1  0  0  0  0
 17 18  1  0  0  0  0
 18 19  1  0  0  0  0
 18 29  2  0  0  0  0
 19 52  1  0  0  0  0
 19 20  2  0  0  0  0
 20 53  1  0  0  0  0
 20 21  1  0  0  0  0
 21 28  2  0  0  0  0
 21 22  1  0  0  0  0
 22 23  2  0  0  0  0
 22 27  1  0  0  0  0
 23 24  1  0  0  0  0
 23 25  1  0  0  0  0
 24 54  1  0  0  0  0
 24 55  1  0  0  0  0
 24 56  1  0  0  0  0
 25 26  2  0  0  0  0
 26 57  1  0  0  0  0
 26 27  1  0  0  0  0
 28 58  1  0  0  0  0
 28 29  1  0  0  0  0
 29 59  1  0  0  0  0
 31 30  1  0  0  0  0
 30 60  1  0  0  0  0
 30 61  1  0  0  0  0
 31 33  1  0  0  0  0
 31 62  1  0  0  0  0
 31 32  1  0  0  0  0
 32 63  1  0  0  0  0
 33 64  1  0  0  0  0
 33 65  1  0  0  0  0
M  ZZC   1 c1
M  ZZC   2 c2
M  ZZC   3 o1
M  ZZC   4 n1
M  ZZC   5 c3
M  ZZC   6 c4
M  ZZC   7 c5
M  ZZC   8 c6
M  ZZC   9 c7
M  ZZC  10 c8
M  ZZC  11 o2
M  ZZC  12 n2
M  ZZC  13 c9
M  ZZC  14 c10
M  ZZC  15 o3
M  ZZC  16 n3
M  ZZC  17 c11
M  ZZC  18 c12
M  ZZC  19 c13
M  ZZC  20 c14
M  ZZC  21 c15
M  ZZC  22 c16
M  ZZC  23 c17
M  ZZC  24 c18
M  ZZC  25 n4
M  ZZC  26 c19
M  ZZC  27 s1
M  ZZC  28 c20
M  ZZC  29 c21
M  ZZC  30 c22
M  ZZC  31 c23
M  ZZC  32 o4
M  ZZC  33 c24
M  ZZC  34 h11
M  ZZC  35 h12
M  ZZC  36 h13
M  ZZC  37 h01
M  ZZC  38 h31
M  ZZC  39 h51
M  ZZC  40 h52
M  ZZC  41 h53
M  ZZC  42 h61
M  ZZC  43 h62
M  ZZC  44 h63
M  ZZC  45 h71
M  ZZC  46 h72
M  ZZC  47 h73
M  ZZC  48 h91
M  ZZC  49 h02
M  ZZC  50 h111
M  ZZC  51 h112
M  ZZC  52 h131
M  ZZC  53 h141
M  ZZC  54 h181
M  ZZC  55 h182
M  ZZC  56 h183
M  ZZC  57 h191
M  ZZC  58 h201
M  ZZC  59 h211
M  ZZC  60 h221
M  ZZC  61 h222
M  ZZC  62 h231
M  ZZC  63 h41
M  ZZC  64 h241
M  ZZC  65 h242
M  ZZM   1 1
M  ZZI   1 111
M  ZZM   2 3
M  ZZI   2 121
M  ZZM   3 7
M  ZZI   3 81
M  ZZM   4 10
M  ZZI   4 211
M  ZZM   5 1
M  ZZI   5 113
M  ZZM   6 1
M  ZZI   6 110
M  ZZM   7 1
M  ZZI   7 111
M  ZZM   8 1
M  ZZI   8 111
M  ZZM   9 1
M  ZZI   9 111
M  ZZM  10 3
M  ZZI  10 121
M  ZZM  11 7
M  ZZI  11 81
M  ZZM  12 10
M  ZZI  12 192
M  ZZM  13 1
M  ZZI  13 113
M  ZZM  14 3
M  ZZI  14 121
M  ZZM  15 7
M  ZZI  15 81
M  ZZM  16 10
M  ZZI  16 211
M  ZZM  17 1
M  ZZI  17 112
M  ZZM  18 37
M  ZZI  18 124
M  ZZM  19 37
M  ZZI  19 125
M  ZZM  20 37
M  ZZI  20 125
M  ZZM  21 37
M  ZZI  21 124
M  ZZM  22 63
M  ZZI  22 104
M  ZZM  23 64
M  ZZI  23 105
M  ZZM  24 1
M  ZZI  24 111
M  ZZM  25 66
M  ZZI  25 222
M  ZZM  26 63
M  ZZI  26 104
M  ZZM  27 44
M  ZZI  27 248
M  ZZM  28 37
M  ZZI  28 125
M  ZZM  29 37
M  ZZI  29 125
M  ZZM  30 1
M  ZZI  30 112
M  ZZM  31 1
M  ZZI  31 113
M  ZZM  32 6
M  ZZI  32 60
M  ZZM  33 1
M  ZZI  33 112
M  ZZM  34 5
M  ZZI  34 1
M  ZZM  35 5
M  ZZI  35 1
M  ZZM  36 5
M  ZZI  36 1
M  ZZM  37 28
M  ZZI  37 11
M  ZZM  38 5
M  ZZI  38 1
M  ZZM  39 5
M  ZZI  39 1
M  ZZM  40 5
M  ZZI  40 1
M  ZZM  41 5
M  ZZI  41 1
M  ZZM  42 5
M  ZZI  42 1
M  ZZM  43 5
M  ZZI  43 1
M  ZZM  44 5
M  ZZI  44 1
M  ZZM  45 5
M  ZZI  45 1
M  ZZM  46 5
M  ZZI  46 1
M  ZZM  47 5
M  ZZI  47 1
M  ZZM  48 5
M  ZZI  48 1
M  ZZM  49 28
M  ZZI  49 11
M  ZZM  50 5
M  ZZI  50 1
M  ZZM  51 5
M  ZZI  51 1
M  ZZM  52 5
M  ZZI  52 1
M  ZZM  53 5
M  ZZI  53 1
M  ZZM  54 5
M  ZZI  54 1
M  ZZM  55 5
M  ZZI  55 1
M  ZZM  56 5
M  ZZI  56 1
M  ZZM  57 5
M  ZZI  57 1
M  ZZM  58 5
M  ZZI  58 1
M  ZZM  59 5
M  ZZI  59 1
M  ZZM  60 5
M  ZZI  60 1
M  ZZM  61 5
M  ZZI  61 1
M  ZZM  62 5
M  ZZI  62 1
M  ZZM  63 21
M  ZZI  63 20
M  ZZM  64 5
M  ZZI  64 1
M  ZZM  65 5
M  ZZI  65 1
M  END
> <IX>
1

> <NAME>
VHL_4IM0_6.pdb

> <Score>
-10.959165

> <Natom>
65

> <Nflex>
8

> <Hbond>
-5.00325

> <Hphob>
-6.420003

> <VwInt>
-26.763436

> <Dsolv>
16.121361

> <SolEl>
17.041983

> <Eintl>
7.708609

> <RecConf>
ND

> <projPath>
VHL_maps/

> <NAME_>
VHL_4IM0_6.pdb

$$$$
