VHL_5GMP_13.pdb
  MOLSOFT 04032206413D

 65 67  0  0  1  0  0  0  0  0999 V2000
   18.0888   -7.0508   -5.1288 C   0  0  0  0  0  0  0  0  0  0  0  0
   16.9428   -6.0799   -5.0848 C   0  0  0  0  0  0  0  0  0  0  0  0
   15.8684   -6.3584   -5.5890 O   0  0  0  0  0  0  0  0  0  0  0  0
   17.2276   -4.9159   -4.3997 N   0  0  0  0  0  0  0  0  0  0  0  0
   16.2831   -3.8022   -4.2362 C   0  0  1  0  0  0  0  0  0  0  0  0
   15.8677   -3.5758   -2.7502 C   0  0  0  0  0  0  0  0  0  0  0  0
   14.7264   -2.5554   -2.6239 C   0  0  0  0  0  0  0  0  0  0  0  0
   17.0346   -3.0748   -1.8866 C   0  0  0  0  0  0  0  0  0  0  0  0
   15.3498   -4.8985   -2.1707 C   0  0  0  0  0  0  0  0  0  0  0  0
   16.9646   -2.5937   -4.9033 C   0  0  0  0  0  0  0  0  0  0  0  0
   18.1650   -2.3933   -4.7753 O   0  0  0  0  0  0  0  0  0  0  0  0
   16.1733   -1.7038   -5.6266 N   0  0  0  0  0  0  0  0  0  0  0  0
   16.7740   -0.5834   -6.3382 C   0  0  2  0  0  0  0  0  0  0  0  0
   17.3117    0.4931   -5.3983 C   0  0  0  0  0  0  0  0  0  0  0  0
   16.8554    0.6889   -4.2797 O   0  0  0  0  0  0  0  0  0  0  0  0
   18.2839    1.2809   -5.9909 N   0  0  0  0  0  0  0  0  0  0  0  0
   18.6535    2.5754   -5.4532 C   0  0  0  0  0  0  0  0  0  0  0  0
   17.6629    3.5950   -5.9480 C   0  0  0  0  0  0  0  0  0  0  0  0
   16.4180    3.6936   -5.3360 C   0  0  0  0  0  0  0  0  0  0  0  0
   15.3959    4.3962   -5.9351 C   0  0  0  0  0  0  0  0  0  0  0  0
   15.6097    5.0477   -7.1395 C   0  0  0  0  0  0  0  0  0  0  0  0
   14.4736    5.6073   -7.8382 C   0  0  0  0  0  0  0  0  0  0  0  0
   13.4499    4.9511   -8.5061 C   0  0  0  0  0  0  0  0  0  0  0  0
   13.3327    3.4924   -8.7445 C   0  0  0  0  0  0  0  0  0  0  0  0
   12.4401    5.7699   -8.9562 N   0  0  0  0  0  0  0  0  0  0  0  0
   12.7465    7.0199   -8.6862 C   0  0  0  0  0  0  0  0  0  0  0  0
   14.2179    7.3001   -7.8746 S   0  0  0  0  0  0  0  0  0  0  0  0
   16.8866    5.0725   -7.6866 C   0  0  0  0  0  0  0  0  0  0  0  0
   17.9041    4.3355   -7.1025 C   0  0  0  0  0  0  0  0  0  0  0  0
   15.6502   -0.0217   -7.2127 C   0  0  0  0  0  0  0  0  0  0  0  0
   14.3917   -0.4653   -6.4861 C   0  0  1  0  0  0  0  0  0  0  0  0
   13.2592   -0.5366   -7.3474 O   0  0  0  0  0  0  0  0  0  0  0  0
   14.7867   -1.8423   -6.0009 C   0  0  0  0  0  0  0  0  0  0  0  0
   19.0470   -6.5256   -5.1876 H   0  0  0  0  0  0  0  0  0  0  0  0
   17.9898   -7.6885   -6.0119 H   0  0  0  0  0  0  0  0  0  0  0  0
   18.0597   -7.6719   -4.2307 H   0  0  0  0  0  0  0  0  0  0  0  0
   18.1778   -4.7786   -4.0732 H   0  0  0  0  0  0  0  0  0  0  0  0
   15.3877   -4.0587   -4.7948 H   0  0  0  0  0  0  0  0  0  0  0  0
   15.0189   -1.5786   -3.0229 H   0  0  0  0  0  0  0  0  0  0  0  0
   14.4469   -2.3957   -1.5783 H   0  0  0  0  0  0  0  0  0  0  0  0
   13.8341   -2.8659   -3.1748 H   0  0  0  0  0  0  0  0  0  0  0  0
   16.7482   -3.0004   -0.8325 H   0  0  0  0  0  0  0  0  0  0  0  0
   17.3755   -2.0822   -2.1966 H   0  0  0  0  0  0  0  0  0  0  0  0
   17.8899   -3.7461   -1.9375 H   0  0  0  0  0  0  0  0  0  0  0  0
   15.0166   -4.7793   -1.1350 H   0  0  0  0  0  0  0  0  0  0  0  0
   16.1289   -5.6652   -2.1771 H   0  0  0  0  0  0  0  0  0  0  0  0
   14.5041   -5.2882   -2.7407 H   0  0  0  0  0  0  0  0  0  0  0  0
   17.5923   -0.9525   -6.9549 H   0  0  0  0  0  0  0  0  0  0  0  0
   18.6608    1.0114   -6.8951 H   0  0  0  0  0  0  0  0  0  0  0  0
   18.6634    2.5382   -4.3582 H   0  0  0  0  0  0  0  0  0  0  0  0
   19.6679    2.8079   -5.7933 H   0  0  0  0  0  0  0  0  0  0  0  0
   16.2078    3.1503   -4.4195 H   0  0  0  0  0  0  0  0  0  0  0  0
   14.4100    4.3901   -5.4777 H   0  0  0  0  0  0  0  0  0  0  0  0
   12.4469    3.2684   -9.3455 H   0  0  0  0  0  0  0  0  0  0  0  0
   13.2365    2.9427   -7.8043 H   0  0  0  0  0  0  0  0  0  0  0  0
   14.2111    3.1077   -9.2694 H   0  0  0  0  0  0  0  0  0  0  0  0
   12.1066    7.8428   -8.9494 H   0  0  0  0  0  0  0  0  0  0  0  0
   17.0808    5.6187   -8.6054 H   0  0  0  0  0  0  0  0  0  0  0  0
   18.8745    4.2965   -7.5888 H   0  0  0  0  0  0  0  0  0  0  0  0
   15.6837    1.0640   -7.3508 H   0  0  0  0  0  0  0  0  0  0  0  0
   15.6829   -0.4668   -8.2146 H   0  0  0  0  0  0  0  0  0  0  0  0
   14.1640    0.1953   -5.6410 H   0  0  0  0  0  0  0  0  0  0  0  0
   12.9861    0.3744   -7.5567 H   0  0  0  0  0  0  0  0  0  0  0  0
   14.7532   -2.5631   -6.8225 H   0  0  0  0  0  0  0  0  0  0  0  0
   14.1497   -2.2121   -5.1983 H   0  0  0  0  0  0  0  0  0  0  0  0
  1 34  1  0  0  0  0
  1 35  1  0  0  0  0
  1 36  1  0  0  0  0
  1  2  1  0  0  0  0
  2  3  2  0  0  0  0
  2  4  1  0  0  0  0
  4 37  1  0  0  0  0
  5  4  1  0  0  0  0
  5 38  1  0  0  0  0
  5  6  1  0  0  0  0
  5 10  1  0  0  0  0
  6  7  1  0  0  0  0
  6  8  1  0  0  0  0
  6  9  1  0  0  0  0
  7 39  1  0  0  0  0
  7 40  1  0  0  0  0
  7 41  1  0  0  0  0
  8 42  1  0  0  0  0
  8 43  1  0  0  0  0
  8 44  1  0  0  0  0
  9 45  1  0  0  0  0
  9 46  1  0  0  0  0
  9 47  1  0  0  0  0
 10 11  2  0  0  0  0
 10 12  1  0  0  0  0
 12 33  1  0  0  0  0
 13 12  1  0  0  0  0
 13 30  1  0  0  0  0
 13 48  1  0  0  0  0
 13 14  1  0  0  0  0
 14 15  2  0  0  0  0
 14 16  1  0  0  0  0
 16 49  1  0  0  0  0
 16 17  1  0  0  0  0
 17 50  1  0  0  0  0
 17 51  1  0  0  0  0
 17 18  1  0  0  0  0
 18 19  1  0  0  0  0
 18 29  2  0  0  0  0
 19 52  1  0  0  0  0
 19 20  2  0  0  0  0
 20 53  1  0  0  0  0
 20 21  1  0  0  0  0
 21 28  2  0  0  0  0
 21 22  1  0  0  0  0
 22 23  2  0  0  0  0
 22 27  1  0  0  0  0
 23 24  1  0  0  0  0
 23 25  1  0  0  0  0
 24 54  1  0  0  0  0
 24 55  1  0  0  0  0
 24 56  1  0  0  0  0
 25 26  2  0  0  0  0
 26 57  1  0  0  0  0
 26 27  1  0  0  0  0
 28 58  1  0  0  0  0
 28 29  1  0  0  0  0
 29 59  1  0  0  0  0
 31 30  1  0  0  0  0
 30 60  1  0  0  0  0
 30 61  1  0  0  0  0
 31 33  1  0  0  0  0
 31 62  1  0  0  0  0
 31 32  1  0  0  0  0
 32 63  1  0  0  0  0
 33 64  1  0  0  0  0
 33 65  1  0  0  0  0
M  ZZC   1 c1
M  ZZC   2 c2
M  ZZC   3 o1
M  ZZC   4 n1
M  ZZC   5 c3
M  ZZC   6 c4
M  ZZC   7 c5
M  ZZC   8 c6
M  ZZC   9 c7
M  ZZC  10 c8
M  ZZC  11 o2
M  ZZC  12 n2
M  ZZC  13 c9
M  ZZC  14 c10
M  ZZC  15 o3
M  ZZC  16 n3
M  ZZC  17 c11
M  ZZC  18 c12
M  ZZC  19 c13
M  ZZC  20 c14
M  ZZC  21 c15
M  ZZC  22 c16
M  ZZC  23 c17
M  ZZC  24 c18
M  ZZC  25 n4
M  ZZC  26 c19
M  ZZC  27 s1
M  ZZC  28 c20
M  ZZC  29 c21
M  ZZC  30 c22
M  ZZC  31 c23
M  ZZC  32 o4
M  ZZC  33 c24
M  ZZC  34 h11
M  ZZC  35 h12
M  ZZC  36 h13
M  ZZC  37 h01
M  ZZC  38 h31
M  ZZC  39 h51
M  ZZC  40 h52
M  ZZC  41 h53
M  ZZC  42 h61
M  ZZC  43 h62
M  ZZC  44 h63
M  ZZC  45 h71
M  ZZC  46 h72
M  ZZC  47 h73
M  ZZC  48 h91
M  ZZC  49 h02
M  ZZC  50 h111
M  ZZC  51 h112
M  ZZC  52 h131
M  ZZC  53 h141
M  ZZC  54 h181
M  ZZC  55 h182
M  ZZC  56 h183
M  ZZC  57 h191
M  ZZC  58 h201
M  ZZC  59 h211
M  ZZC  60 h221
M  ZZC  61 h222
M  ZZC  62 h231
M  ZZC  63 h41
M  ZZC  64 h241
M  ZZC  65 h242
M  ZZM   1 1
M  ZZI   1 111
M  ZZM   2 3
M  ZZI   2 121
M  ZZM   3 7
M  ZZI   3 81
M  ZZM   4 10
M  ZZI   4 211
M  ZZM   5 1
M  ZZI   5 113
M  ZZM   6 1
M  ZZI   6 110
M  ZZM   7 1
M  ZZI   7 111
M  ZZM   8 1
M  ZZI   8 111
M  ZZM   9 1
M  ZZI   9 111
M  ZZM  10 3
M  ZZI  10 121
M  ZZM  11 7
M  ZZI  11 81
M  ZZM  12 10
M  ZZI  12 192
M  ZZM  13 1
M  ZZI  13 113
M  ZZM  14 3
M  ZZI  14 121
M  ZZM  15 7
M  ZZI  15 81
M  ZZM  16 10
M  ZZI  16 211
M  ZZM  17 1
M  ZZI  17 112
M  ZZM  18 37
M  ZZI  18 124
M  ZZM  19 37
M  ZZI  19 125
M  ZZM  20 37
M  ZZI  20 125
M  ZZM  21 37
M  ZZI  21 124
M  ZZM  22 63
M  ZZI  22 104
M  ZZM  23 64
M  ZZI  23 105
M  ZZM  24 1
M  ZZI  24 111
M  ZZM  25 66
M  ZZI  25 222
M  ZZM  26 63
M  ZZI  26 104
M  ZZM  27 44
M  ZZI  27 248
M  ZZM  28 37
M  ZZI  28 125
M  ZZM  29 37
M  ZZI  29 125
M  ZZM  30 1
M  ZZI  30 112
M  ZZM  31 1
M  ZZI  31 113
M  ZZM  32 6
M  ZZI  32 60
M  ZZM  33 1
M  ZZI  33 112
M  ZZM  34 5
M  ZZI  34 1
M  ZZM  35 5
M  ZZI  35 1
M  ZZM  36 5
M  ZZI  36 1
M  ZZM  37 28
M  ZZI  37 11
M  ZZM  38 5
M  ZZI  38 1
M  ZZM  39 5
M  ZZI  39 1
M  ZZM  40 5
M  ZZI  40 1
M  ZZM  41 5
M  ZZI  41 1
M  ZZM  42 5
M  ZZI  42 1
M  ZZM  43 5
M  ZZI  43 1
M  ZZM  44 5
M  ZZI  44 1
M  ZZM  45 5
M  ZZI  45 1
M  ZZM  46 5
M  ZZI  46 1
M  ZZM  47 5
M  ZZI  47 1
M  ZZM  48 5
M  ZZI  48 1
M  ZZM  49 28
M  ZZI  49 11
M  ZZM  50 5
M  ZZI  50 1
M  ZZM  51 5
M  ZZI  51 1
M  ZZM  52 5
M  ZZI  52 1
M  ZZM  53 5
M  ZZI  53 1
M  ZZM  54 5
M  ZZI  54 1
M  ZZM  55 5
M  ZZI  55 1
M  ZZM  56 5
M  ZZI  56 1
M  ZZM  57 5
M  ZZI  57 1
M  ZZM  58 5
M  ZZI  58 1
M  ZZM  59 5
M  ZZI  59 1
M  ZZM  60 5
M  ZZI  60 1
M  ZZM  61 5
M  ZZI  61 1
M  ZZM  62 5
M  ZZI  62 1
M  ZZM  63 21
M  ZZI  63 20
M  ZZM  64 5
M  ZZI  64 1
M  ZZM  65 5
M  ZZI  65 1
M  END
> <IX>
1

> <NAME>
VHL_5GMP_13.pdb

> <Score>
-7.409076

> <Natom>
65

> <Nflex>
8

> <Hbond>
-6.018604

> <Hphob>
-6.831696

> <VwInt>
-28.108773

> <Dsolv>
21.784868

> <SolEl>
22.800493

> <Eintl>
7.195044

> <RecConf>
ND

> <projPath>
VHL_maps/

> <NAME_>
VHL_5GMP_13.pdb

$$$$
