VHL_4R6E_2.pdb
  MOLSOFT 04032206383D

 65 67  0  0  1  0  0  0  0  0999 V2000
    3.2882   -1.9432  -14.6293 O   0  0  0  0  0  0  0  0  0  0  0  0
    3.2133   -2.4427  -15.7409 C   0  0  0  0  0  0  0  0  0  0  0  0
    3.7335   -1.8920  -16.8935 N   0  0  0  0  0  0  0  0  0  0  0  0
    4.5580   -0.6803  -16.8937 C   0  0  2  0  0  0  0  0  0  0  0  0
    4.0746    0.3633  -17.9466 C   0  0  0  0  0  0  0  0  0  0  0  0
    2.5698    0.6292  -17.7585 C   0  0  0  0  0  0  0  0  0  0  0  0
    4.8258    1.6865  -17.7526 C   0  0  0  0  0  0  0  0  0  0  0  0
    4.2938   -0.0990  -19.3971 C   0  0  0  0  0  0  0  0  0  0  0  0
    5.9889   -1.1993  -17.1283 C   0  0  0  0  0  0  0  0  0  0  0  0
    6.1918   -2.1149  -17.9165 O   0  0  0  0  0  0  0  0  0  0  0  0
    7.0496   -0.6016  -16.4439 N   0  0  0  0  0  0  0  0  0  0  0  0
    8.3950   -1.1267  -16.6155 C   0  0  1  0  0  0  0  0  0  0  0  0
    9.0242   -0.7359  -17.9541 C   0  0  0  0  0  0  0  0  0  0  0  0
    8.6640    0.2213  -18.6258 O   0  0  0  0  0  0  0  0  0  0  0  0
   10.1200   -1.5203  -18.2449 N   0  0  0  0  0  0  0  0  0  0  0  0
   11.1011   -1.1827  -19.2520 C   0  0  0  0  0  0  0  0  0  0  0  0
   12.4677   -1.6001  -18.7748 C   0  0  0  0  0  0  0  0  0  0  0  0
   13.1715   -2.6180  -19.4111 C   0  0  0  0  0  0  0  0  0  0  0  0
   14.3850   -3.0581  -18.9087 C   0  0  0  0  0  0  0  0  0  0  0  0
   14.9224   -2.4887  -17.7606 C   0  0  0  0  0  0  0  0  0  0  0  0
   16.1622   -2.9846  -17.1888 C   0  0  0  0  0  0  0  0  0  0  0  0
   16.3726   -3.7598  -16.0594 C   0  0  0  0  0  0  0  0  0  0  0  0
   15.3335   -4.3694  -15.2084 C   0  0  0  0  0  0  0  0  0  0  0  0
   17.6938   -3.9713  -15.7279 N   0  0  0  0  0  0  0  0  0  0  0  0
   18.4608   -3.4492  -16.6602 C   0  0  0  0  0  0  0  0  0  0  0  0
   17.6674   -2.6311  -17.9334 S   0  0  0  0  0  0  0  0  0  0  0  0
   14.2340   -1.4547  -17.1373 C   0  0  0  0  0  0  0  0  0  0  0  0
   13.0249   -1.0117  -17.6425 C   0  0  0  0  0  0  0  0  0  0  0  0
    9.2423   -0.5066  -15.5116 C   0  0  0  0  0  0  0  0  0  0  0  0
    8.2685    0.2060  -14.5927 C   0  0  2  0  0  0  0  0  0  0  0  0
    7.9579   -0.6137  -13.4717 O   0  0  0  0  0  0  0  0  0  0  0  0
    7.0181    0.4330  -15.4278 C   0  0  0  0  0  0  0  0  0  0  0  0
    2.5438   -3.7678  -15.9755 C   0  0  0  0  0  0  0  0  0  0  0  0
    3.6870   -2.4310  -17.7525 H   0  0  0  0  0  0  0  0  0  0  0  0
    4.4852   -0.2457  -15.8940 H   0  0  0  0  0  0  0  0  0  0  0  0
    2.3304    0.8819  -16.7225 H   0  0  0  0  0  0  0  0  0  0  0  0
    1.9644   -0.2424  -18.0256 H   0  0  0  0  0  0  0  0  0  0  0  0
    2.2258    1.4596  -18.3843 H   0  0  0  0  0  0  0  0  0  0  0  0
    5.8795    1.6025  -18.0337 H   0  0  0  0  0  0  0  0  0  0  0  0
    4.7838    2.0215  -16.7140 H   0  0  0  0  0  0  0  0  0  0  0  0
    4.3946    2.4834  -18.3622 H   0  0  0  0  0  0  0  0  0  0  0  0
    3.8018   -1.0550  -19.5995 H   0  0  0  0  0  0  0  0  0  0  0  0
    5.3559   -0.2123  -19.6345 H   0  0  0  0  0  0  0  0  0  0  0  0
    3.8880    0.6286  -20.1080 H   0  0  0  0  0  0  0  0  0  0  0  0
    8.3609   -2.2200  -16.5287 H   0  0  0  0  0  0  0  0  0  0  0  0
   10.2597   -2.3760  -17.7241 H   0  0  0  0  0  0  0  0  0  0  0  0
   10.8199   -1.7084  -20.1702 H   0  0  0  0  0  0  0  0  0  0  0  0
   11.0769   -0.1074  -19.4600 H   0  0  0  0  0  0  0  0  0  0  0  0
   12.7643   -3.0988  -20.2958 H   0  0  0  0  0  0  0  0  0  0  0  0
   14.9002   -3.8727  -19.4093 H   0  0  0  0  0  0  0  0  0  0  0  0
   15.7183   -4.5615  -14.2060 H   0  0  0  0  0  0  0  0  0  0  0  0
   14.9867   -5.3198  -15.6189 H   0  0  0  0  0  0  0  0  0  0  0  0
   14.4724   -3.7009  -15.1383 H   0  0  0  0  0  0  0  0  0  0  0  0
   19.5366   -3.5227  -16.6323 H   0  0  0  0  0  0  0  0  0  0  0  0
   14.6324   -0.9937  -16.2371 H   0  0  0  0  0  0  0  0  0  0  0  0
   12.4985   -0.2130  -17.1272 H   0  0  0  0  0  0  0  0  0  0  0  0
    9.8364   -1.2680  -15.0011 H   0  0  0  0  0  0  0  0  0  0  0  0
    9.9534    0.2099  -15.9228 H   0  0  0  0  0  0  0  0  0  0  0  0
    8.6865    1.1361  -14.2028 H   0  0  0  0  0  0  0  0  0  0  0  0
    8.7979   -0.9492  -13.1079 H   0  0  0  0  0  0  0  0  0  0  0  0
    7.0738    1.3963  -15.9438 H   0  0  0  0  0  0  0  0  0  0  0  0
    6.1018    0.3829  -14.8346 H   0  0  0  0  0  0  0  0  0  0  0  0
    1.9962   -4.0682  -15.0773 H   0  0  0  0  0  0  0  0  0  0  0  0
    3.3013   -4.5243  -16.2037 H   0  0  0  0  0  0  0  0  0  0  0  0
    1.8382   -3.6919  -16.8087 H   0  0  0  0  0  0  0  0  0  0  0  0
  1  2  2  0  0  0  0
  2  3  1  0  0  0  0
  2 33  1  0  0  0  0
  4  3  1  0  0  0  0
  3 34  1  0  0  0  0
  4  5  1  0  0  0  0
  4 35  1  0  0  0  0
  4  9  1  0  0  0  0
  5  6  1  0  0  0  0
  5  7  1  0  0  0  0
  5  8  1  0  0  0  0
  6 36  1  0  0  0  0
  6 37  1  0  0  0  0
  6 38  1  0  0  0  0
  7 39  1  0  0  0  0
  7 40  1  0  0  0  0
  7 41  1  0  0  0  0
  8 42  1  0  0  0  0
  8 43  1  0  0  0  0
  8 44  1  0  0  0  0
  9 10  2  0  0  0  0
  9 11  1  0  0  0  0
 11 32  1  0  0  0  0
 12 11  1  0  0  0  0
 12 29  1  0  0  0  0
 12 45  1  0  0  0  0
 12 13  1  0  0  0  0
 13 14  2  0  0  0  0
 13 15  1  0  0  0  0
 15 46  1  0  0  0  0
 15 16  1  0  0  0  0
 16 47  1  0  0  0  0
 16 48  1  0  0  0  0
 16 17  1  0  0  0  0
 17 18  1  0  0  0  0
 17 28  2  0  0  0  0
 18 49  1  0  0  0  0
 18 19  2  0  0  0  0
 19 50  1  0  0  0  0
 19 20  1  0  0  0  0
 20 27  2  0  0  0  0
 20 21  1  0  0  0  0
 21 22  2  0  0  0  0
 21 26  1  0  0  0  0
 22 23  1  0  0  0  0
 22 24  1  0  0  0  0
 23 51  1  0  0  0  0
 23 52  1  0  0  0  0
 23 53  1  0  0  0  0
 24 25  2  0  0  0  0
 25 54  1  0  0  0  0
 25 26  1  0  0  0  0
 27 55  1  0  0  0  0
 27 28  1  0  0  0  0
 28 56  1  0  0  0  0
 30 29  1  0  0  0  0
 29 57  1  0  0  0  0
 29 58  1  0  0  0  0
 30 32  1  0  0  0  0
 30 59  1  0  0  0  0
 30 31  1  0  0  0  0
 31 60  1  0  0  0  0
 32 61  1  0  0  0  0
 32 62  1  0  0  0  0
 33 63  1  0  0  0  0
 33 64  1  0  0  0  0
 33 65  1  0  0  0  0
M  ZZC   1 o1
M  ZZC   2 c1
M  ZZC   3 n1
M  ZZC   4 c2
M  ZZC   5 c3
M  ZZC   6 c4
M  ZZC   7 c5
M  ZZC   8 c6
M  ZZC   9 c7
M  ZZC  10 o2
M  ZZC  11 n2
M  ZZC  12 c8
M  ZZC  13 c9
M  ZZC  14 o3
M  ZZC  15 n3
M  ZZC  16 c10
M  ZZC  17 c11
M  ZZC  18 c12
M  ZZC  19 c13
M  ZZC  20 c14
M  ZZC  21 c15
M  ZZC  22 c16
M  ZZC  23 c17
M  ZZC  24 n4
M  ZZC  25 c18
M  ZZC  26 s1
M  ZZC  27 c19
M  ZZC  28 c20
M  ZZC  29 c21
M  ZZC  30 c22
M  ZZC  31 o4
M  ZZC  32 c23
M  ZZC  33 c24
M  ZZC  34 h11
M  ZZC  35 h21
M  ZZC  36 h41
M  ZZC  37 h42
M  ZZC  38 h43
M  ZZC  39 h51
M  ZZC  40 h52
M  ZZC  41 h53
M  ZZC  42 h61
M  ZZC  43 h62
M  ZZC  44 h63
M  ZZC  45 h81
M  ZZC  46 h31
M  ZZC  47 h101
M  ZZC  48 h102
M  ZZC  49 h121
M  ZZC  50 h131
M  ZZC  51 h171
M  ZZC  52 h172
M  ZZC  53 h173
M  ZZC  54 h181
M  ZZC  55 h191
M  ZZC  56 h201
M  ZZC  57 h211
M  ZZC  58 h212
M  ZZC  59 h221
M  ZZC  60 h01
M  ZZC  61 h231
M  ZZC  62 h232
M  ZZC  63 h241
M  ZZC  64 h242
M  ZZC  65 h243
M  ZZM   1 7
M  ZZI   1 81
M  ZZM   2 3
M  ZZI   2 121
M  ZZM   3 10
M  ZZI   3 211
M  ZZM   4 1
M  ZZI   4 113
M  ZZM   5 1
M  ZZI   5 110
M  ZZM   6 1
M  ZZI   6 111
M  ZZM   7 1
M  ZZI   7 111
M  ZZM   8 1
M  ZZI   8 111
M  ZZM   9 3
M  ZZI   9 121
M  ZZM  10 7
M  ZZI  10 81
M  ZZM  11 10
M  ZZI  11 192
M  ZZM  12 1
M  ZZI  12 113
M  ZZM  13 3
M  ZZI  13 121
M  ZZM  14 7
M  ZZI  14 81
M  ZZM  15 10
M  ZZI  15 211
M  ZZM  16 1
M  ZZI  16 112
M  ZZM  17 37
M  ZZI  17 124
M  ZZM  18 37
M  ZZI  18 125
M  ZZM  19 37
M  ZZI  19 125
M  ZZM  20 37
M  ZZI  20 124
M  ZZM  21 63
M  ZZI  21 104
M  ZZM  22 64
M  ZZI  22 105
M  ZZM  23 1
M  ZZI  23 111
M  ZZM  24 66
M  ZZI  24 222
M  ZZM  25 63
M  ZZI  25 104
M  ZZM  26 44
M  ZZI  26 248
M  ZZM  27 37
M  ZZI  27 125
M  ZZM  28 37
M  ZZI  28 125
M  ZZM  29 1
M  ZZI  29 112
M  ZZM  30 1
M  ZZI  30 113
M  ZZM  31 6
M  ZZI  31 60
M  ZZM  32 1
M  ZZI  32 112
M  ZZM  33 1
M  ZZI  33 111
M  ZZM  34 28
M  ZZI  34 11
M  ZZM  35 5
M  ZZI  35 1
M  ZZM  36 5
M  ZZI  36 1
M  ZZM  37 5
M  ZZI  37 1
M  ZZM  38 5
M  ZZI  38 1
M  ZZM  39 5
M  ZZI  39 1
M  ZZM  40 5
M  ZZI  40 1
M  ZZM  41 5
M  ZZI  41 1
M  ZZM  42 5
M  ZZI  42 1
M  ZZM  43 5
M  ZZI  43 1
M  ZZM  44 5
M  ZZI  44 1
M  ZZM  45 5
M  ZZI  45 1
M  ZZM  46 28
M  ZZI  46 11
M  ZZM  47 5
M  ZZI  47 1
M  ZZM  48 5
M  ZZI  48 1
M  ZZM  49 5
M  ZZI  49 1
M  ZZM  50 5
M  ZZI  50 1
M  ZZM  51 5
M  ZZI  51 1
M  ZZM  52 5
M  ZZI  52 1
M  ZZM  53 5
M  ZZI  53 1
M  ZZM  54 5
M  ZZI  54 1
M  ZZM  55 5
M  ZZI  55 1
M  ZZM  56 5
M  ZZI  56 1
M  ZZM  57 5
M  ZZI  57 1
M  ZZM  58 5
M  ZZI  58 1
M  ZZM  59 5
M  ZZI  59 1
M  ZZM  60 21
M  ZZI  60 20
M  ZZM  61 5
M  ZZI  61 1
M  ZZM  62 5
M  ZZI  62 1
M  ZZM  63 5
M  ZZI  63 1
M  ZZM  64 5
M  ZZI  64 1
M  ZZM  65 5
M  ZZI  65 1
M  END
> <IX>
1

> <NAME>
VHL_4R6E_2.pdb

> <Score>
-13.406481

> <Natom>
65

> <Nflex>
8

> <Hbond>
-3.684778

> <Hphob>
-6.510144

> <VwInt>
-26.051712

> <Dsolv>
16.329471

> <SolEl>
8.462552

> <Eintl>
6.161881

> <RecConf>
ND

> <projPath>
VHL_maps/

> <NAME_>
VHL_4R6E_2.pdb

$$$$
