VHL_4IM0_13.pdb
  MOLSOFT 04032206383D

 65 67  0  0  1  0  0  0  0  0999 V2000
   18.0936   -6.8312   -5.1291 C   0  0  0  0  0  0  0  0  0  0  0  0
   16.8911   -5.9360   -5.0089 C   0  0  0  0  0  0  0  0  0  0  0  0
   15.8182   -6.2636   -5.4854 O   0  0  0  0  0  0  0  0  0  0  0  0
   17.1301   -4.7811   -4.2912 N   0  0  0  0  0  0  0  0  0  0  0  0
   16.1340   -3.7270   -4.0382 C   0  0  1  0  0  0  0  0  0  0  0  0
   15.8567   -3.5414   -2.5175 C   0  0  0  0  0  0  0  0  0  0  0  0
   15.3657   -4.8826   -1.9654 C   0  0  0  0  0  0  0  0  0  0  0  0
   14.7521   -2.5188   -2.2289 C   0  0  0  0  0  0  0  0  0  0  0  0
   17.1043   -3.0928   -1.7436 C   0  0  0  0  0  0  0  0  0  0  0  0
   16.6827   -2.4971   -4.7839 C   0  0  0  0  0  0  0  0  0  0  0  0
   17.8855   -2.2638   -4.8085 O   0  0  0  0  0  0  0  0  0  0  0  0
   15.7740   -1.6748   -5.4537 N   0  0  0  0  0  0  0  0  0  0  0  0
   16.2419   -0.6961   -6.4192 C   0  0  2  0  0  0  0  0  0  0  0  0
   16.7122    0.5782   -5.7169 C   0  0  0  0  0  0  0  0  0  0  0  0
   16.2570    0.9468   -4.6424 O   0  0  0  0  0  0  0  0  0  0  0  0
   17.6600    1.2843   -6.4361 N   0  0  0  0  0  0  0  0  0  0  0  0
   18.2433    2.5167   -5.9409 C   0  0  0  0  0  0  0  0  0  0  0  0
   17.3677    3.7165   -6.2044 C   0  0  0  0  0  0  0  0  0  0  0  0
   16.3540    4.0635   -5.3157 C   0  0  0  0  0  0  0  0  0  0  0  0
   15.5207    5.1378   -5.5674 C   0  0  0  0  0  0  0  0  0  0  0  0
   15.6824    5.9016   -6.7163 C   0  0  0  0  0  0  0  0  0  0  0  0
   14.7887    7.0135   -6.9986 C   0  0  0  0  0  0  0  0  0  0  0  0
   13.8761    7.1855   -8.0281 C   0  0  0  0  0  0  0  0  0  0  0  0
   13.5737    6.2161   -9.1026 C   0  0  0  0  0  0  0  0  0  0  0  0
   13.1958    8.3863   -8.0125 N   0  0  0  0  0  0  0  0  0  0  0  0
   13.5844    9.0970   -6.9773 C   0  0  0  0  0  0  0  0  0  0  0  0
   14.7632    8.3882   -5.9676 S   0  0  0  0  0  0  0  0  0  0  0  0
   16.7004    5.5667   -7.6032 C   0  0  0  0  0  0  0  0  0  0  0  0
   17.5334    4.4886   -7.3495 C   0  0  0  0  0  0  0  0  0  0  0  0
   15.0366   -0.4530   -7.3152 C   0  0  0  0  0  0  0  0  0  0  0  0
   13.8446   -0.6434   -6.3883 C   0  0  1  0  0  0  0  0  0  0  0  0
   12.7135   -1.1749   -7.0751 O   0  0  0  0  0  0  0  0  0  0  0  0
   14.3263   -1.6413   -5.3483 C   0  0  0  0  0  0  0  0  0  0  0  0
   19.0133   -6.2444   -5.2156 H   0  0  0  0  0  0  0  0  0  0  0  0
   17.9960   -7.4536   -6.0235 H   0  0  0  0  0  0  0  0  0  0  0  0
   18.1466   -7.4747   -4.2478 H   0  0  0  0  0  0  0  0  0  0  0  0
   18.0879   -4.5931   -4.0149 H   0  0  0  0  0  0  0  0  0  0  0  0
   15.2059   -4.0425   -4.5136 H   0  0  0  0  0  0  0  0  0  0  0  0
   15.1008   -4.7953   -0.9102 H   0  0  0  0  0  0  0  0  0  0  0  0
   16.1254   -5.6606   -2.0591 H   0  0  0  0  0  0  0  0  0  0  0  0
   14.4753   -5.2349   -2.4962 H   0  0  0  0  0  0  0  0  0  0  0  0
   15.0527   -1.5107   -2.5332 H   0  0  0  0  0  0  0  0  0  0  0  0
   14.5229   -2.4690   -1.1601 H   0  0  0  0  0  0  0  0  0  0  0  0
   13.8371   -2.7460   -2.7826 H   0  0  0  0  0  0  0  0  0  0  0  0
   16.9050   -3.0243   -0.6692 H   0  0  0  0  0  0  0  0  0  0  0  0
   17.4539   -2.1088   -2.0713 H   0  0  0  0  0  0  0  0  0  0  0  0
   17.9293   -3.7899   -1.8682 H   0  0  0  0  0  0  0  0  0  0  0  0
   17.0768   -1.1122   -6.9902 H   0  0  0  0  0  0  0  0  0  0  0  0
   18.0433    0.8801   -7.2859 H   0  0  0  0  0  0  0  0  0  0  0  0
   18.4357    2.4154   -4.8669 H   0  0  0  0  0  0  0  0  0  0  0  0
   19.2162    2.6380   -6.4288 H   0  0  0  0  0  0  0  0  0  0  0  0
   16.1985    3.4848   -4.4100 H   0  0  0  0  0  0  0  0  0  0  0  0
   14.7281    5.3658   -4.8603 H   0  0  0  0  0  0  0  0  0  0  0  0
   14.4042    6.1545   -9.8102 H   0  0  0  0  0  0  0  0  0  0  0  0
   12.6792    6.5110   -9.6533 H   0  0  0  0  0  0  0  0  0  0  0  0
   13.3944    5.2176   -8.6930 H   0  0  0  0  0  0  0  0  0  0  0  0
   13.1869   10.0780   -6.7642 H   0  0  0  0  0  0  0  0  0  0  0  0
   16.8538    6.1523   -8.5059 H   0  0  0  0  0  0  0  0  0  0  0  0
   18.3224    4.2535   -8.0571 H   0  0  0  0  0  0  0  0  0  0  0  0
   15.0340    0.5353   -7.7869 H   0  0  0  0  0  0  0  0  0  0  0  0
   15.0099   -1.1954   -8.1208 H   0  0  0  0  0  0  0  0  0  0  0  0
   13.5545    0.3016   -5.9148 H   0  0  0  0  0  0  0  0  0  0  0  0
   12.4535   -0.5438   -7.7697 H   0  0  0  0  0  0  0  0  0  0  0  0
   13.8996   -2.6384   -5.4591 H   0  0  0  0  0  0  0  0  0  0  0  0
   14.0505   -1.2714   -4.3622 H   0  0  0  0  0  0  0  0  0  0  0  0
  1 34  1  0  0  0  0
  1 35  1  0  0  0  0
  1 36  1  0  0  0  0
  1  2  1  0  0  0  0
  2  3  2  0  0  0  0
  2  4  1  0  0  0  0
  4 37  1  0  0  0  0
  5  4  1  0  0  0  0
  5 38  1  0  0  0  0
  5  6  1  0  0  0  0
  5 10  1  0  0  0  0
  6  7  1  0  0  0  0
  6  8  1  0  0  0  0
  6  9  1  0  0  0  0
  7 39  1  0  0  0  0
  7 40  1  0  0  0  0
  7 41  1  0  0  0  0
  8 42  1  0  0  0  0
  8 43  1  0  0  0  0
  8 44  1  0  0  0  0
  9 45  1  0  0  0  0
  9 46  1  0  0  0  0
  9 47  1  0  0  0  0
 10 11  2  0  0  0  0
 10 12  1  0  0  0  0
 12 33  1  0  0  0  0
 13 12  1  0  0  0  0
 13 30  1  0  0  0  0
 13 48  1  0  0  0  0
 13 14  1  0  0  0  0
 14 15  2  0  0  0  0
 14 16  1  0  0  0  0
 16 49  1  0  0  0  0
 16 17  1  0  0  0  0
 17 50  1  0  0  0  0
 17 51  1  0  0  0  0
 17 18  1  0  0  0  0
 18 19  1  0  0  0  0
 18 29  2  0  0  0  0
 19 52  1  0  0  0  0
 19 20  2  0  0  0  0
 20 53  1  0  0  0  0
 20 21  1  0  0  0  0
 21 28  2  0  0  0  0
 21 22  1  0  0  0  0
 22 23  2  0  0  0  0
 22 27  1  0  0  0  0
 23 24  1  0  0  0  0
 23 25  1  0  0  0  0
 24 54  1  0  0  0  0
 24 55  1  0  0  0  0
 24 56  1  0  0  0  0
 25 26  2  0  0  0  0
 26 57  1  0  0  0  0
 26 27  1  0  0  0  0
 28 58  1  0  0  0  0
 28 29  1  0  0  0  0
 29 59  1  0  0  0  0
 31 30  1  0  0  0  0
 30 60  1  0  0  0  0
 30 61  1  0  0  0  0
 31 33  1  0  0  0  0
 31 62  1  0  0  0  0
 31 32  1  0  0  0  0
 32 63  1  0  0  0  0
 33 64  1  0  0  0  0
 33 65  1  0  0  0  0
M  ZZC   1 c1
M  ZZC   2 c2
M  ZZC   3 o1
M  ZZC   4 n1
M  ZZC   5 c3
M  ZZC   6 c4
M  ZZC   7 c5
M  ZZC   8 c6
M  ZZC   9 c7
M  ZZC  10 c8
M  ZZC  11 o2
M  ZZC  12 n2
M  ZZC  13 c9
M  ZZC  14 c10
M  ZZC  15 o3
M  ZZC  16 n3
M  ZZC  17 c11
M  ZZC  18 c12
M  ZZC  19 c13
M  ZZC  20 c14
M  ZZC  21 c15
M  ZZC  22 c16
M  ZZC  23 c17
M  ZZC  24 c18
M  ZZC  25 n4
M  ZZC  26 c19
M  ZZC  27 s1
M  ZZC  28 c20
M  ZZC  29 c21
M  ZZC  30 c22
M  ZZC  31 c23
M  ZZC  32 o4
M  ZZC  33 c24
M  ZZC  34 h11
M  ZZC  35 h12
M  ZZC  36 h13
M  ZZC  37 h01
M  ZZC  38 h31
M  ZZC  39 h51
M  ZZC  40 h52
M  ZZC  41 h53
M  ZZC  42 h61
M  ZZC  43 h62
M  ZZC  44 h63
M  ZZC  45 h71
M  ZZC  46 h72
M  ZZC  47 h73
M  ZZC  48 h91
M  ZZC  49 h02
M  ZZC  50 h111
M  ZZC  51 h112
M  ZZC  52 h131
M  ZZC  53 h141
M  ZZC  54 h181
M  ZZC  55 h182
M  ZZC  56 h183
M  ZZC  57 h191
M  ZZC  58 h201
M  ZZC  59 h211
M  ZZC  60 h221
M  ZZC  61 h222
M  ZZC  62 h231
M  ZZC  63 h41
M  ZZC  64 h241
M  ZZC  65 h242
M  ZZM   1 1
M  ZZI   1 111
M  ZZM   2 3
M  ZZI   2 121
M  ZZM   3 7
M  ZZI   3 81
M  ZZM   4 10
M  ZZI   4 211
M  ZZM   5 1
M  ZZI   5 113
M  ZZM   6 1
M  ZZI   6 110
M  ZZM   7 1
M  ZZI   7 111
M  ZZM   8 1
M  ZZI   8 111
M  ZZM   9 1
M  ZZI   9 111
M  ZZM  10 3
M  ZZI  10 121
M  ZZM  11 7
M  ZZI  11 81
M  ZZM  12 10
M  ZZI  12 192
M  ZZM  13 1
M  ZZI  13 113
M  ZZM  14 3
M  ZZI  14 121
M  ZZM  15 7
M  ZZI  15 81
M  ZZM  16 10
M  ZZI  16 211
M  ZZM  17 1
M  ZZI  17 112
M  ZZM  18 37
M  ZZI  18 124
M  ZZM  19 37
M  ZZI  19 125
M  ZZM  20 37
M  ZZI  20 125
M  ZZM  21 37
M  ZZI  21 124
M  ZZM  22 63
M  ZZI  22 104
M  ZZM  23 64
M  ZZI  23 105
M  ZZM  24 1
M  ZZI  24 111
M  ZZM  25 66
M  ZZI  25 222
M  ZZM  26 63
M  ZZI  26 104
M  ZZM  27 44
M  ZZI  27 248
M  ZZM  28 37
M  ZZI  28 125
M  ZZM  29 37
M  ZZI  29 125
M  ZZM  30 1
M  ZZI  30 112
M  ZZM  31 1
M  ZZI  31 113
M  ZZM  32 6
M  ZZI  32 60
M  ZZM  33 1
M  ZZI  33 112
M  ZZM  34 5
M  ZZI  34 1
M  ZZM  35 5
M  ZZI  35 1
M  ZZM  36 5
M  ZZI  36 1
M  ZZM  37 28
M  ZZI  37 11
M  ZZM  38 5
M  ZZI  38 1
M  ZZM  39 5
M  ZZI  39 1
M  ZZM  40 5
M  ZZI  40 1
M  ZZM  41 5
M  ZZI  41 1
M  ZZM  42 5
M  ZZI  42 1
M  ZZM  43 5
M  ZZI  43 1
M  ZZM  44 5
M  ZZI  44 1
M  ZZM  45 5
M  ZZI  45 1
M  ZZM  46 5
M  ZZI  46 1
M  ZZM  47 5
M  ZZI  47 1
M  ZZM  48 5
M  ZZI  48 1
M  ZZM  49 28
M  ZZI  49 11
M  ZZM  50 5
M  ZZI  50 1
M  ZZM  51 5
M  ZZI  51 1
M  ZZM  52 5
M  ZZI  52 1
M  ZZM  53 5
M  ZZI  53 1
M  ZZM  54 5
M  ZZI  54 1
M  ZZM  55 5
M  ZZI  55 1
M  ZZM  56 5
M  ZZI  56 1
M  ZZM  57 5
M  ZZI  57 1
M  ZZM  58 5
M  ZZI  58 1
M  ZZM  59 5
M  ZZI  59 1
M  ZZM  60 5
M  ZZI  60 1
M  ZZM  61 5
M  ZZI  61 1
M  ZZM  62 5
M  ZZI  62 1
M  ZZM  63 21
M  ZZI  63 20
M  ZZM  64 5
M  ZZI  64 1
M  ZZM  65 5
M  ZZI  65 1
M  END
> <IX>
1

> <NAME>
VHL_4IM0_13.pdb

> <Score>
-3.37502

> <Natom>
65

> <Nflex>
8

> <Hbond>
-4.92573

> <Hphob>
-6.547019

> <VwInt>
-27.41483

> <Dsolv>
22.483427

> <SolEl>
23.490938

> <Eintl>
6.203032

> <RecConf>
ND

> <projPath>
VHL_maps/

> <NAME_>
VHL_4IM0_13.pdb

$$$$
